* NGSPICE file created from tdc_parax.ext - technology: sky130A

.subckt tdc_parax term_4 stop term_3 term_5 term_2 term_1 term_6 term_0 term_7 start
+ VSS VDD
X0 vernier_delay_line_0.saff_delay_unit_6/saff_2_0.sense_amplifier_0.out2.t2 vernier_delay_line_0.saff_delay_unit_6/saff_2_0.sense_amplifier_0.out1.t4 VDD.t365 VDD.t364 sky130_fd_pr__pfet_01v8 ad=0.435 pd=3.29 as=0.87 ps=6.58 w=3 l=0.15
X1 a_17444_296# vernier_delay_line_0.saff_delay_unit_7/saff_2_0.sense_amplifier_0.out1.t4 term_7.t3 VSS.t380 sky130_fd_pr__nfet_01v8 ad=0.145 pd=1.29 as=0.145 ps=1.29 w=1 l=0.15
X2 a_14862_2192# vernier_delay_line_0.saff_delay_unit_7/delay_unit_2_0.in_1.t8 a_14774_2192.t10 VSS.t382 sky130_fd_pr__nfet_01v8 ad=0.435 pd=3.29 as=0.87 ps=6.58 w=3 l=0.15
X3 vernier_delay_line_0.saff_delay_unit_3/saff_2_0.nq a_8732_1376# a_8694_730# VDD.t224 sky130_fd_pr__pfet_01v8 ad=0.435 pd=3.29 as=0.435 ps=3.29 w=3 l=0.15
X4 diff_gen_0.delay_unit_2_6.in_1.t2 diff_gen_0.delay_unit_2_5.in_2.t8 VSS.t437 VSS.t436 sky130_fd_pr__nfet_01v8 ad=0.145 pd=1.29 as=0.145 ps=1.29 w=1 l=0.15
X5 VDD.t503 vernier_delay_line_0.saff_delay_unit_7/saff_2_0.sense_amplifier_0.out2.t4 vernier_delay_line_0.saff_delay_unit_7/saff_2_0.nq VDD.t502 sky130_fd_pr__pfet_01v8 ad=0.435 pd=3.29 as=0.435 ps=3.29 w=3 l=0.15
X6 vernier_delay_line_0.saff_delay_unit_1/saff_2_0.nq vernier_delay_line_0.saff_delay_unit_1/saff_2_0.sense_amplifier_0.out2.t4 a_4130_296# VSS.t581 sky130_fd_pr__nfet_01v8 ad=0.145 pd=1.29 as=0.145 ps=1.29 w=1 l=0.15
X7 a_12492_2192.t9 vernier_delay_line_0.stop_strong.t32 VSS.t135 VSS.t134 sky130_fd_pr__nfet_01v8 ad=0.435 pd=3.29 as=0.435 ps=3.29 w=3 l=0.15
X8 VSS.t563 diff_gen_0.delay_unit_2_2.in_1.t8 diff_gen_0.delay_unit_2_3.in_2.t2 VSS.t562 sky130_fd_pr__nfet_01v8 ad=0.145 pd=1.29 as=0.145 ps=1.29 w=1 l=0.15
X9 VDD.t31 start_buffer_0.start_buff.t10 start_buffer_0.start_delay.t7 VDD.t30 sky130_fd_pr__pfet_01v8 ad=0.435 pd=3.29 as=0.87 ps=6.58 w=3 l=0.15
X10 vernier_delay_line_0.saff_delay_unit_7/saff_2_0.nd.t4 vernier_delay_line_0.saff_delay_unit_7/delay_unit_2_0.in_1.t9 VSS.t457 VSS.t456 sky130_fd_pr__nfet_01v8 ad=0.145 pd=1.29 as=0.145 ps=1.29 w=1 l=0.15
X11 a_n6458_3464.t3 a_n6748_3464# VSS.t234 VSS.t233 sky130_fd_pr__nfet_01v8 ad=0.29 pd=2.58 as=0.29 ps=2.58 w=1 l=0.15
X12 VSS.t92 diff_gen_0.delay_unit_2_1.in_2.t8 diff_gen_0.delay_unit_2_1.in_1.t0 VSS.t91 sky130_fd_pr__nfet_01v8 ad=0.145 pd=1.29 as=0.29 ps=2.58 w=1 l=0.15
X13 VSS.t69 vernier_delay_line_0.saff_delay_unit_6/delay_unit_2_0.in_1.t8 vernier_delay_line_0.saff_delay_unit_6/delay_unit_2_0.in_2.t0 VSS.t68 sky130_fd_pr__nfet_01v8 ad=0.145 pd=1.29 as=0.29 ps=2.58 w=1 l=0.15
X14 diff_gen_0.delay_unit_2_5.in_2.t7 diff_gen_0.delay_unit_2_4.in_1.t8 VSS.t550 VSS.t549 sky130_fd_pr__nfet_01v8 ad=0.145 pd=1.29 as=0.145 ps=1.29 w=1 l=0.15
X15 vernier_delay_line_0.start_neg.t2 diff_gen_0.delay_unit_2_6.in_1.t8 VSS.t156 VSS.t155 sky130_fd_pr__nfet_01v8 ad=0.29 pd=2.58 as=0.145 ps=1.29 w=1 l=0.15
X16 a_5910_2192.t5 vernier_delay_line_0.saff_delay_unit_3/delay_unit_2_0.in_2.t8 a_5646_2192.t9 VSS.t9 sky130_fd_pr__nfet_01v8 ad=0.435 pd=3.29 as=0.435 ps=3.29 w=3 l=0.15
X17 vernier_delay_line_0.saff_delay_unit_6/delay_unit_2_0.in_1.t0 vernier_delay_line_0.saff_delay_unit_5/delay_unit_2_0.in_2.t8 VDD.t55 VDD.t54 sky130_fd_pr__pfet_01v8 ad=0.435 pd=3.29 as=0.435 ps=3.29 w=3 l=0.15
X18 a_13258_296# term_5.t4 VSS.t148 VSS.t147 sky130_fd_pr__nfet_01v8 ad=0.145 pd=1.29 as=0.29 ps=2.58 w=1 l=0.15
X19 start_buffer_0.start_buff.t3 a_n11872_5654# VSS.t23 VSS.t22 sky130_fd_pr__nfet_01v8 ad=0.29 pd=2.58 as=0.29 ps=2.58 w=1 l=0.15
X20 a_3364_2192.t10 vernier_delay_line_0.saff_delay_unit_2/delay_unit_2_0.in_1.t8 a_3452_2192# VSS.t86 sky130_fd_pr__nfet_01v8 ad=0.435 pd=3.29 as=0.435 ps=3.29 w=3 l=0.15
X21 VDD.t134 diff_gen_0.delay_unit_2_5.in_2.t9 diff_gen_0.delay_unit_2_5.in_1.t4 VDD.t133 sky130_fd_pr__pfet_01v8 ad=0.435 pd=3.29 as=0.87 ps=6.58 w=3 l=0.15
X22 vernier_delay_line_0.saff_delay_unit_0/saff_2_0.nq vernier_delay_line_0.saff_delay_unit_0/saff_2_0.sense_amplifier_0.out2.t4 a_1848_296# VSS.t27 sky130_fd_pr__nfet_01v8 ad=0.145 pd=1.29 as=0.145 ps=1.29 w=1 l=0.15
X23 a_3364_2192.t6 vernier_delay_line_0.stop_strong.t33 VSS.t133 VSS.t132 sky130_fd_pr__nfet_01v8 ad=0.435 pd=3.29 as=0.435 ps=3.29 w=3 l=0.15
X24 a_14774_2192.t6 vernier_delay_line_0.saff_delay_unit_7/delay_unit_2_0.in_2.t8 a_15038_2192.t5 VSS.t334 sky130_fd_pr__nfet_01v8 ad=0.435 pd=3.29 as=0.435 ps=3.29 w=3 l=0.15
X25 VSS.t353 vernier_delay_line_0.stop_strong.t34 a_1082_2192.t8 VSS.t352 sky130_fd_pr__nfet_01v8 ad=0.435 pd=3.29 as=0.435 ps=3.29 w=3 l=0.15
X26 VSS.t88 vernier_delay_line_0.saff_delay_unit_2/delay_unit_2_0.in_1.t9 vernier_delay_line_0.saff_delay_unit_3/delay_unit_2_0.in_2.t3 VSS.t87 sky130_fd_pr__nfet_01v8 ad=0.145 pd=1.29 as=0.145 ps=1.29 w=1 l=0.15
X27 vernier_delay_line_0.delay_unit_2_0.out_2 vernier_delay_line_0.saff_delay_unit_7/saff_2_0.d.t8 VDD.t410 VDD.t409 sky130_fd_pr__pfet_01v8 ad=0.87 pd=6.58 as=0.435 ps=3.29 w=3 l=0.15
X28 VDD.t339 vernier_delay_line_0.saff_delay_unit_4/delay_unit_2_0.in_1.t8 vernier_delay_line_0.saff_delay_unit_4/delay_unit_2_0.in_2.t1 VDD.t338 sky130_fd_pr__pfet_01v8 ad=0.435 pd=3.29 as=0.87 ps=6.58 w=3 l=0.15
X29 VDD.t388 vernier_delay_line_0.saff_delay_unit_3/saff_2_0.nq a_8316_730# VDD.t387 sky130_fd_pr__pfet_01v8 ad=0.87 pd=6.58 as=0.435 ps=3.29 w=3 l=0.15
X30 vernier_delay_line_0.saff_delay_unit_7/saff_2_0.d.t4 vernier_delay_line_0.saff_delay_unit_7/delay_unit_2_0.in_2.t9 VSS.t336 VSS.t335 sky130_fd_pr__nfet_01v8 ad=0.29 pd=2.58 as=0.145 ps=1.29 w=1 l=0.15
X31 a_14774_2192.t11 vernier_delay_line_0.saff_delay_unit_7/delay_unit_2_0.in_2.t10 a_15038_2192.t4 VSS.t385 sky130_fd_pr__nfet_01v8 ad=0.435 pd=3.29 as=0.435 ps=3.29 w=3 l=0.15
X32 vernier_delay_line_0.saff_delay_unit_4/saff_2_0.sense_amplifier_0.out2.t3 vernier_delay_line_0.saff_delay_unit_4/saff_2_0.sense_amplifier_0.out1.t4 VDD.t416 VDD.t415 sky130_fd_pr__pfet_01v8 ad=0.435 pd=3.29 as=0.87 ps=6.58 w=3 l=0.15
X33 VDD.t45 diff_gen_0.delay_unit_2_3.in_2.t8 diff_gen_0.delay_unit_2_4.in_1.t6 VDD.t44 sky130_fd_pr__pfet_01v8 ad=0.435 pd=3.29 as=0.435 ps=3.29 w=3 l=0.15
X34 VSS.t542 vernier_delay_line_0.saff_delay_unit_6/delay_unit_2_0.in_2.t8 vernier_delay_line_0.saff_delay_unit_7/delay_unit_2_0.in_1.t7 VSS.t541 sky130_fd_pr__nfet_01v8 ad=0.145 pd=1.29 as=0.145 ps=1.29 w=1 l=0.15
X35 a_15578_1376# vernier_delay_line_0.saff_delay_unit_6/saff_2_0.sense_amplifier_0.out1.t5 VSS.t388 VSS.t387 sky130_fd_pr__nfet_01v8 ad=0.29 pd=2.58 as=0.145 ps=1.29 w=1 l=0.15
X36 VDD.t472 diff_gen_0.delay_unit_2_5.in_1.t8 diff_gen_0.delay_unit_2_6.in_2.t7 VDD.t471 sky130_fd_pr__pfet_01v8 ad=0.435 pd=3.29 as=0.435 ps=3.29 w=3 l=0.15
X37 diff_gen_0.delay_unit_2_1.in_2.t6 start_buffer_0.start_buff.t11 VDD.t33 VDD.t32 sky130_fd_pr__pfet_01v8 ad=0.87 pd=6.58 as=0.435 ps=3.29 w=3 l=0.15
X38 VDD.t414 vernier_delay_line_0.saff_delay_unit_3/delay_unit_2_0.in_1.t8 vernier_delay_line_0.saff_delay_unit_3/delay_unit_2_0.in_2.t6 VDD.t413 sky130_fd_pr__pfet_01v8 ad=0.435 pd=3.29 as=0.87 ps=6.58 w=3 l=0.15
X39 a_8016_2192# vernier_delay_line_0.saff_delay_unit_4/delay_unit_2_0.in_1.t9 a_7928_2192.t3 VSS.t162 sky130_fd_pr__nfet_01v8 ad=0.435 pd=3.29 as=0.87 ps=6.58 w=3 l=0.15
X40 a_17444_730# a_17176_160# term_7.t0 VDD.t197 sky130_fd_pr__pfet_01v8 ad=0.435 pd=3.29 as=0.435 ps=3.29 w=3 l=0.15
X41 VDD.t295 vernier_delay_line_0.start_pos.t8 vernier_delay_line_0.saff_delay_unit_1/delay_unit_2_0.in_2.t7 VDD.t294 sky130_fd_pr__pfet_01v8 ad=0.435 pd=3.29 as=0.435 ps=3.29 w=3 l=0.15
X42 diff_gen_0.delay_unit_2_1.in_1.t7 start_buffer_0.start_delay.t8 VDD.t105 VDD.t104 sky130_fd_pr__pfet_01v8 ad=0.87 pd=6.58 as=0.435 ps=3.29 w=3 l=0.15
X43 vernier_delay_line_0.saff_delay_unit_6/delay_unit_2_0.in_2.t3 vernier_delay_line_0.saff_delay_unit_5/delay_unit_2_0.in_1.t8 VSS.t150 VSS.t149 sky130_fd_pr__nfet_01v8 ad=0.145 pd=1.29 as=0.145 ps=1.29 w=1 l=0.15
X44 VDD.t437 vernier_delay_line_0.saff_delay_unit_7/delay_unit_2_0.in_2.t11 vernier_delay_line_0.saff_delay_unit_7/delay_unit_2_0.in_1.t5 VDD.t436 sky130_fd_pr__pfet_01v8 ad=0.435 pd=3.29 as=0.87 ps=6.58 w=3 l=0.15
X45 a_5646_2192.t4 vernier_delay_line_0.stop_strong.t35 VSS.t348 VSS.t347 sky130_fd_pr__nfet_01v8 ad=0.435 pd=3.29 as=0.435 ps=3.29 w=3 l=0.15
X46 vernier_delay_line_0.saff_delay_unit_1/saff_2_0.nq a_4168_1376# a_4130_730# VDD.t494 sky130_fd_pr__pfet_01v8 ad=0.435 pd=3.29 as=0.435 ps=3.29 w=3 l=0.15
X47 VSS.t261 vernier_delay_line_0.saff_delay_unit_0/saff_2_0.nq a_1470_296# VSS.t260 sky130_fd_pr__nfet_01v8 ad=0.29 pd=2.58 as=0.145 ps=1.29 w=1 l=0.15
X48 VSS.t342 vernier_delay_line_0.stop_strong.t36 a_3364_2192.t5 VSS.t341 sky130_fd_pr__nfet_01v8 ad=0.435 pd=3.29 as=0.435 ps=3.29 w=3 l=0.15
X49 VDD.t317 diff_gen_0.delay_unit_2_2.in_2.t8 diff_gen_0.delay_unit_2_3.in_1.t5 VDD.t316 sky130_fd_pr__pfet_01v8 ad=0.435 pd=3.29 as=0.435 ps=3.29 w=3 l=0.15
X50 vernier_delay_line_0.saff_delay_unit_2/delay_unit_2_0.in_1.t4 vernier_delay_line_0.saff_delay_unit_1/delay_unit_2_0.in_2.t8 VSS.t355 VSS.t354 sky130_fd_pr__nfet_01v8 ad=0.29 pd=2.58 as=0.145 ps=1.29 w=1 l=0.15
X51 VSS.t346 vernier_delay_line_0.saff_delay_unit_5/saff_2_0.sense_amplifier_0.out2.t4 a_12612_160# VSS.t345 sky130_fd_pr__nfet_01v8 ad=0.145 pd=1.29 as=0.29 ps=2.58 w=1 l=0.15
X52 VDD.t451 vernier_delay_line_0.start_neg.t8 vernier_delay_line_0.saff_delay_unit_1/delay_unit_2_0.in_1.t5 VDD.t450 sky130_fd_pr__pfet_01v8 ad=0.435 pd=3.29 as=0.435 ps=3.29 w=3 l=0.15
X53 a_17056_2192.t3 vernier_delay_line_0.saff_delay_unit_7/saff_2_0.d.t9 a_17144_2192# VSS.t440 sky130_fd_pr__nfet_01v8 ad=0.435 pd=3.29 as=0.435 ps=3.29 w=3 l=0.15
X54 vernier_delay_line_0.saff_delay_unit_5/saff_2_0.sense_amplifier_0.out1.t3 vernier_delay_line_0.stop_strong.t37 VDD.t313 VDD.t312 sky130_fd_pr__pfet_01v8 ad=0.435 pd=3.29 as=0.87 ps=6.58 w=3 l=0.15
X55 VDD.t101 diff_gen_0.delay_unit_2_3.in_1.t8 diff_gen_0.delay_unit_2_3.in_2.t7 VDD.t100 sky130_fd_pr__pfet_01v8 ad=0.435 pd=3.29 as=0.87 ps=6.58 w=3 l=0.15
X56 a_17056_2192.t12 vernier_delay_line_0.stop_strong.t38 VSS.t180 VSS.t179 sky130_fd_pr__nfet_01v8 ad=0.435 pd=3.29 as=0.435 ps=3.29 w=3 l=0.15
X57 vernier_delay_line_0.start_pos.t4 diff_gen_0.delay_unit_2_6.in_2.t8 VSS.t427 VSS.t426 sky130_fd_pr__nfet_01v8 ad=0.29 pd=2.58 as=0.145 ps=1.29 w=1 l=0.15
X58 VSS.t279 a_6450_1376# vernier_delay_line_0.saff_delay_unit_2/saff_2_0.nq VSS.t278 sky130_fd_pr__nfet_01v8 ad=0.145 pd=1.29 as=0.145 ps=1.29 w=1 l=0.15
X59 vernier_delay_line_0.saff_delay_unit_2/delay_unit_2_0.in_2.t4 vernier_delay_line_0.saff_delay_unit_1/delay_unit_2_0.in_1.t8 VSS.t190 VSS.t189 sky130_fd_pr__nfet_01v8 ad=0.29 pd=2.58 as=0.145 ps=1.29 w=1 l=0.15
X60 VDD.t12 vernier_delay_line_0.saff_delay_unit_3/delay_unit_2_0.in_2.t9 vernier_delay_line_0.saff_delay_unit_4/delay_unit_2_0.in_1.t7 VDD.t11 sky130_fd_pr__pfet_01v8 ad=0.435 pd=3.29 as=0.435 ps=3.29 w=3 l=0.15
X61 a_13258_730# term_5.t5 VDD.t128 VDD.t127 sky130_fd_pr__pfet_01v8 ad=0.435 pd=3.29 as=0.87 ps=6.58 w=3 l=0.15
X62 a_10210_2192.t3 vernier_delay_line_0.saff_delay_unit_5/delay_unit_2_0.in_2.t9 a_10474_2192.t2 VSS.t60 sky130_fd_pr__nfet_01v8 ad=0.435 pd=3.29 as=0.435 ps=3.29 w=3 l=0.15
X63 a_1170_2192# vernier_delay_line_0.saff_delay_unit_0/saff_2_0.sense_amplifier_0.out2.t5 vernier_delay_line_0.saff_delay_unit_0/saff_2_0.sense_amplifier_0.out1.t2 VSS.t28 sky130_fd_pr__nfet_01v8 ad=0.435 pd=3.29 as=0.87 ps=6.58 w=3 l=0.15
X64 vernier_delay_line_0.saff_delay_unit_0/saff_2_0.nq a_1886_1376# a_1848_730# VDD.t180 sky130_fd_pr__pfet_01v8 ad=0.435 pd=3.29 as=0.435 ps=3.29 w=3 l=0.15
X65 vernier_delay_line_0.saff_delay_unit_3/delay_unit_2_0.in_1.t3 vernier_delay_line_0.saff_delay_unit_2/delay_unit_2_0.in_2.t8 VDD.t325 VDD.t324 sky130_fd_pr__pfet_01v8 ad=0.435 pd=3.29 as=0.435 ps=3.29 w=3 l=0.15
X66 a_7928_2192.t12 vernier_delay_line_0.saff_delay_unit_4/delay_unit_2_0.in_2.t8 a_8192_2192.t5 VSS.t488 sky130_fd_pr__nfet_01v8 ad=0.435 pd=3.29 as=0.435 ps=3.29 w=3 l=0.15
X67 VDD.t259 vernier_delay_line_0.saff_delay_unit_1/delay_unit_2_0.in_1.t9 vernier_delay_line_0.saff_delay_unit_1/delay_unit_2_0.in_2.t0 VDD.t258 sky130_fd_pr__pfet_01v8 ad=0.435 pd=3.29 as=0.87 ps=6.58 w=3 l=0.15
X68 a_12756_2192.t5 vernier_delay_line_0.saff_delay_unit_5/saff_2_0.sense_amplifier_0.out1.t4 vernier_delay_line_0.saff_delay_unit_5/saff_2_0.sense_amplifier_0.out2.t0 VSS.t174 sky130_fd_pr__nfet_01v8 ad=0.435 pd=3.29 as=0.87 ps=6.58 w=3 l=0.15
X69 VSS.t485 vernier_delay_line_0.saff_delay_unit_6/saff_2_0.nq a_15162_296# VSS.t484 sky130_fd_pr__nfet_01v8 ad=0.29 pd=2.58 as=0.145 ps=1.29 w=1 l=0.15
X70 a_1082_2192.t12 vernier_delay_line_0.saff_delay_unit_1/delay_unit_2_0.in_1.t10 a_1170_2192# VSS.t531 sky130_fd_pr__nfet_01v8 ad=0.435 pd=3.29 as=0.435 ps=3.29 w=3 l=0.15
X71 a_15578_1376# vernier_delay_line_0.saff_delay_unit_6/saff_2_0.sense_amplifier_0.out1.t6 VDD.t363 VDD.t362 sky130_fd_pr__pfet_01v8 ad=0.87 pd=6.58 as=0.435 ps=3.29 w=3 l=0.15
X72 a_7928_2192.t9 vernier_delay_line_0.saff_delay_unit_4/delay_unit_2_0.in_2.t9 a_8192_2192.t4 VSS.t4 sky130_fd_pr__nfet_01v8 ad=0.435 pd=3.29 as=0.435 ps=3.29 w=3 l=0.15
X73 vernier_delay_line_0.saff_delay_unit_1/saff_2_0.sense_amplifier_0.out2.t2 vernier_delay_line_0.saff_delay_unit_1/saff_2_0.sense_amplifier_0.out1.t4 VDD.t151 VDD.t150 sky130_fd_pr__pfet_01v8 ad=0.435 pd=3.29 as=0.87 ps=6.58 w=3 l=0.15
X74 VDD.t63 vernier_delay_line_0.saff_delay_unit_6/delay_unit_2_0.in_1.t9 vernier_delay_line_0.saff_delay_unit_7/delay_unit_2_0.in_2.t5 VDD.t62 sky130_fd_pr__pfet_01v8 ad=0.435 pd=3.29 as=0.435 ps=3.29 w=3 l=0.15
X75 VSS.t176 diff_gen_0.delay_unit_2_1.in_1.t8 diff_gen_0.delay_unit_2_2.in_2.t4 VSS.t175 sky130_fd_pr__nfet_01v8 ad=0.145 pd=1.29 as=0.145 ps=1.29 w=1 l=0.15
X76 a_1082_2192.t7 vernier_delay_line_0.stop_strong.t39 VSS.t338 VSS.t337 sky130_fd_pr__nfet_01v8 ad=0.435 pd=3.29 as=0.435 ps=3.29 w=3 l=0.15
X77 VDD.t165 vernier_delay_line_0.stop_strong.t40 vernier_delay_line_0.saff_delay_unit_5/saff_2_0.sense_amplifier_0.out2.t2 VDD.t164 sky130_fd_pr__pfet_01v8 ad=0.87 pd=6.58 as=0.435 ps=3.29 w=3 l=0.15
X78 VSS.t90 start_buffer_0.start_delay.t9 start_buffer_0.start_buff.t8 VSS.t89 sky130_fd_pr__nfet_01v8 ad=0.145 pd=1.29 as=0.29 ps=2.58 w=1 l=0.15
X79 vernier_delay_line_0.saff_delay_unit_3/delay_unit_2_0.in_2.t7 vernier_delay_line_0.saff_delay_unit_2/delay_unit_2_0.in_1.t10 VSS.t570 VSS.t569 sky130_fd_pr__nfet_01v8 ad=0.145 pd=1.29 as=0.145 ps=1.29 w=1 l=0.15
X80 VDD.t253 vernier_delay_line_0.saff_delay_unit_4/delay_unit_2_0.in_2.t10 vernier_delay_line_0.saff_delay_unit_4/delay_unit_2_0.in_1.t0 VDD.t252 sky130_fd_pr__pfet_01v8 ad=0.435 pd=3.29 as=0.87 ps=6.58 w=3 l=0.15
X81 a_12492_2192.t0 vernier_delay_line_0.saff_delay_unit_6/delay_unit_2_0.in_1.t10 a_12580_2192# VSS.t50 sky130_fd_pr__nfet_01v8 ad=0.435 pd=3.29 as=0.435 ps=3.29 w=3 l=0.15
X82 a_n6458_3464.t7 a_n6748_3464# VDD.t205 VDD.t204 sky130_fd_pr__pfet_01v8 ad=0.87 pd=6.58 as=0.87 ps=6.58 w=3 l=0.15
X83 VSS.t291 diff_gen_0.delay_unit_2_1.in_2.t9 diff_gen_0.delay_unit_2_2.in_1.t5 VSS.t290 sky130_fd_pr__nfet_01v8 ad=0.145 pd=1.29 as=0.145 ps=1.29 w=1 l=0.15
X84 VDD.t234 vernier_delay_line_0.saff_delay_unit_0/saff_2_0.nq a_1470_730# VDD.t233 sky130_fd_pr__pfet_01v8 ad=0.87 pd=6.58 as=0.435 ps=3.29 w=3 l=0.15
X85 VSS.t188 vernier_delay_line_0.stop_strong.t41 a_10210_2192.t12 VSS.t187 sky130_fd_pr__nfet_01v8 ad=0.435 pd=3.29 as=0.435 ps=3.29 w=3 l=0.15
X86 vernier_delay_line_0.saff_delay_unit_4/saff_2_0.nq vernier_delay_line_0.saff_delay_unit_4/saff_2_0.sense_amplifier_0.out2.t4 a_10976_296# VSS.t468 sky130_fd_pr__nfet_01v8 ad=0.145 pd=1.29 as=0.145 ps=1.29 w=1 l=0.15
X87 vernier_delay_line_0.saff_delay_unit_7/saff_2_0.nd.t3 vernier_delay_line_0.saff_delay_unit_7/delay_unit_2_0.in_1.t10 VSS.t312 VSS.t311 sky130_fd_pr__nfet_01v8 ad=0.29 pd=2.58 as=0.145 ps=1.29 w=1 l=0.15
X88 VDD.t466 diff_gen_0.delay_unit_2_4.in_2.t8 diff_gen_0.delay_unit_2_4.in_1.t7 VDD.t465 sky130_fd_pr__pfet_01v8 ad=0.435 pd=3.29 as=0.87 ps=6.58 w=3 l=0.15
X89 VDD.t390 vernier_delay_line_0.saff_delay_unit_5/saff_2_0.sense_amplifier_0.out2.t5 a_12612_160# VDD.t389 sky130_fd_pr__pfet_01v8 ad=0.435 pd=3.29 as=0.87 ps=6.58 w=3 l=0.15
X90 a_6034_296# vernier_delay_line_0.saff_delay_unit_2/saff_2_0.sense_amplifier_0.out1.t4 term_2.t2 VSS.t536 sky130_fd_pr__nfet_01v8 ad=0.145 pd=1.29 as=0.145 ps=1.29 w=1 l=0.15
X91 vernier_delay_line_0.delay_unit_2_0.out_1.t5 vernier_delay_line_0.saff_delay_unit_7/saff_2_0.nd.t8 VDD.t73 VDD.t72 sky130_fd_pr__pfet_01v8 ad=0.435 pd=3.29 as=0.435 ps=3.29 w=3 l=0.15
X92 vernier_delay_line_0.start_neg.t1 diff_gen_0.delay_unit_2_6.in_1.t9 VSS.t158 VSS.t157 sky130_fd_pr__nfet_01v8 ad=0.145 pd=1.29 as=0.145 ps=1.29 w=1 l=0.15
X93 VSS.t40 start_buffer_0.start_buff.t12 diff_gen_0.delay_unit_2_1.in_2.t3 VSS.t39 sky130_fd_pr__nfet_01v8 ad=0.145 pd=1.29 as=0.145 ps=1.29 w=1 l=0.15
X94 VDD.t148 diff_gen_0.delay_unit_2_5.in_2.t10 diff_gen_0.delay_unit_2_6.in_1.t5 VDD.t147 sky130_fd_pr__pfet_01v8 ad=0.435 pd=3.29 as=0.435 ps=3.29 w=3 l=0.15
X95 VDD.t138 vernier_delay_line_0.saff_delay_unit_2/saff_2_0.sense_amplifier_0.out2.t4 vernier_delay_line_0.saff_delay_unit_2/saff_2_0.nq VDD.t137 sky130_fd_pr__pfet_01v8 ad=0.435 pd=3.29 as=0.435 ps=3.29 w=3 l=0.15
X96 a_3364_2192.t1 vernier_delay_line_0.saff_delay_unit_2/delay_unit_2_0.in_2.t9 a_3628_2192.t3 VSS.t236 sky130_fd_pr__nfet_01v8 ad=0.435 pd=3.29 as=0.435 ps=3.29 w=3 l=0.15
X97 diff_gen_0.delay_unit_2_3.in_2.t5 diff_gen_0.delay_unit_2_2.in_1.t9 VDD.t319 VDD.t318 sky130_fd_pr__pfet_01v8 ad=0.87 pd=6.58 as=0.435 ps=3.29 w=3 l=0.15
X98 vernier_delay_line_0.saff_delay_unit_6/delay_unit_2_0.in_1.t3 vernier_delay_line_0.saff_delay_unit_5/delay_unit_2_0.in_2.t10 VDD.t126 VDD.t125 sky130_fd_pr__pfet_01v8 ad=0.87 pd=6.58 as=0.435 ps=3.29 w=3 l=0.15
X99 a_1346_2192.t5 vernier_delay_line_0.saff_delay_unit_1/delay_unit_2_0.in_2.t9 a_1082_2192.t1 VSS.t249 sky130_fd_pr__nfet_01v8 ad=0.435 pd=3.29 as=0.435 ps=3.29 w=3 l=0.15
X100 VDD.t283 vernier_delay_line_0.saff_delay_unit_7/delay_unit_2_0.in_1.t11 vernier_delay_line_0.saff_delay_unit_7/delay_unit_2_0.in_2.t7 VDD.t282 sky130_fd_pr__pfet_01v8 ad=0.435 pd=3.29 as=0.87 ps=6.58 w=3 l=0.15
X101 vernier_delay_line_0.saff_delay_unit_4/saff_2_0.sense_amplifier_0.out2.t1 vernier_delay_line_0.saff_delay_unit_4/saff_2_0.sense_amplifier_0.out1.t5 a_10474_2192.t5 VSS.t81 sky130_fd_pr__nfet_01v8 ad=0.87 pd=6.58 as=0.435 ps=3.29 w=3 l=0.15
X102 VSS.t267 vernier_delay_line_0.stop_strong.t42 a_1082_2192.t6 VSS.t266 sky130_fd_pr__nfet_01v8 ad=0.87 pd=6.58 as=0.435 ps=3.29 w=3 l=0.15
X103 vernier_delay_line_0.stop_strong.t10 a_n6458_3464.t8 VDD.t109 VDD.t108 sky130_fd_pr__pfet_01v8 ad=0.87 pd=6.58 as=0.87 ps=6.58 w=3 l=0.15
X104 VDD.t51 diff_gen_0.delay_unit_2_4.in_1.t9 diff_gen_0.delay_unit_2_5.in_2.t0 VDD.t50 sky130_fd_pr__pfet_01v8 ad=0.435 pd=3.29 as=0.435 ps=3.29 w=3 l=0.15
X105 a_14774_2192.t9 vernier_delay_line_0.saff_delay_unit_7/delay_unit_2_0.in_1.t12 a_14862_2192# VSS.t72 sky130_fd_pr__nfet_01v8 ad=0.435 pd=3.29 as=0.435 ps=3.29 w=3 l=0.15
X106 VSS.t544 vernier_delay_line_0.saff_delay_unit_6/delay_unit_2_0.in_2.t9 vernier_delay_line_0.saff_delay_unit_6/delay_unit_2_0.in_1.t7 VSS.t543 sky130_fd_pr__nfet_01v8 ad=0.145 pd=1.29 as=0.29 ps=2.58 w=1 l=0.15
X107 a_n6458_3464.t2 a_n6748_3464# VSS.t232 VSS.t231 sky130_fd_pr__nfet_01v8 ad=0.29 pd=2.58 as=0.29 ps=2.58 w=1 l=0.15
X108 vernier_delay_line_0.saff_delay_unit_7/saff_2_0.sense_amplifier_0.out2.t1 vernier_delay_line_0.saff_delay_unit_7/saff_2_0.sense_amplifier_0.out1.t5 VDD.t221 VDD.t220 sky130_fd_pr__pfet_01v8 ad=0.435 pd=3.29 as=0.87 ps=6.58 w=3 l=0.15
X109 a_8732_1376# vernier_delay_line_0.saff_delay_unit_3/saff_2_0.sense_amplifier_0.out1.t4 VSS.t1 VSS.t0 sky130_fd_pr__nfet_01v8 ad=0.29 pd=2.58 as=0.145 ps=1.29 w=1 l=0.15
X110 VDD.t461 diff_gen_0.delay_unit_2_3.in_2.t9 diff_gen_0.delay_unit_2_3.in_1.t7 VDD.t460 sky130_fd_pr__pfet_01v8 ad=0.435 pd=3.29 as=0.87 ps=6.58 w=3 l=0.15
X111 VSS.t366 vernier_delay_line_0.stop_strong.t43 a_17056_2192.t11 VSS.t365 sky130_fd_pr__nfet_01v8 ad=0.435 pd=3.29 as=0.435 ps=3.29 w=3 l=0.15
X112 VDD.t435 vernier_delay_line_0.saff_delay_unit_6/saff_2_0.nq a_15162_730# VDD.t434 sky130_fd_pr__pfet_01v8 ad=0.87 pd=6.58 as=0.435 ps=3.29 w=3 l=0.15
X113 a_14774_2192.t0 vernier_delay_line_0.stop_strong.t44 VSS.t13 VSS.t12 sky130_fd_pr__nfet_01v8 ad=0.435 pd=3.29 as=0.435 ps=3.29 w=3 l=0.15
X114 a_5910_2192.t1 vernier_delay_line_0.saff_delay_unit_2/saff_2_0.sense_amplifier_0.out1.t5 vernier_delay_line_0.saff_delay_unit_2/saff_2_0.sense_amplifier_0.out2.t2 VSS.t255 sky130_fd_pr__nfet_01v8 ad=0.435 pd=3.29 as=0.87 ps=6.58 w=3 l=0.15
X115 a_n7038_3464# a_n7328_3464# VDD.t14 VDD.t13 sky130_fd_pr__pfet_01v8 ad=0.87 pd=6.58 as=0.87 ps=6.58 w=3 l=0.15
X116 vernier_delay_line_0.delay_unit_2_0.out_2 vernier_delay_line_0.saff_delay_unit_7/saff_2_0.d.t10 VSS.t318 VSS.t317 sky130_fd_pr__nfet_01v8 ad=0.145 pd=1.29 as=0.145 ps=1.29 w=1 l=0.15
X117 term_4.t0 a_10330_160# VSS.t483 VSS.t482 sky130_fd_pr__nfet_01v8 ad=0.145 pd=1.29 as=0.145 ps=1.29 w=1 l=0.15
X118 vernier_delay_line_0.saff_delay_unit_6/delay_unit_2_0.in_2.t7 vernier_delay_line_0.saff_delay_unit_5/delay_unit_2_0.in_1.t9 VSS.t490 VSS.t489 sky130_fd_pr__nfet_01v8 ad=0.29 pd=2.58 as=0.145 ps=1.29 w=1 l=0.15
X119 a_10298_2192# vernier_delay_line_0.saff_delay_unit_4/saff_2_0.sense_amplifier_0.out2.t5 vernier_delay_line_0.saff_delay_unit_4/saff_2_0.sense_amplifier_0.out1.t1 VSS.t42 sky130_fd_pr__nfet_01v8 ad=0.435 pd=3.29 as=0.87 ps=6.58 w=3 l=0.15
X120 VDD.t188 diff_gen_0.delay_unit_2_2.in_1.t10 diff_gen_0.delay_unit_2_2.in_2.t1 VDD.t187 sky130_fd_pr__pfet_01v8 ad=0.435 pd=3.29 as=0.87 ps=6.58 w=3 l=0.15
X121 VSS.t396 vernier_delay_line_0.saff_delay_unit_4/delay_unit_2_0.in_1.t10 vernier_delay_line_0.saff_delay_unit_5/delay_unit_2_0.in_2.t4 VSS.t395 sky130_fd_pr__nfet_01v8 ad=0.145 pd=1.29 as=0.145 ps=1.29 w=1 l=0.15
X122 vernier_delay_line_0.saff_delay_unit_7/delay_unit_2_0.in_1.t0 vernier_delay_line_0.saff_delay_unit_6/delay_unit_2_0.in_2.t10 VDD.t47 VDD.t46 sky130_fd_pr__pfet_01v8 ad=0.435 pd=3.29 as=0.435 ps=3.29 w=3 l=0.15
X123 VSS.t530 vernier_delay_line_0.saff_delay_unit_2/saff_2_0.sense_amplifier_0.out2.t5 a_5766_160# VSS.t529 sky130_fd_pr__nfet_01v8 ad=0.145 pd=1.29 as=0.29 ps=2.58 w=1 l=0.15
X124 vernier_delay_line_0.stop_strong.t11 a_n6458_3464.t9 VSS.t123 VSS.t122 sky130_fd_pr__nfet_01v8 ad=0.29 pd=2.58 as=0.29 ps=2.58 w=1 l=0.15
X125 VDD.t453 vernier_delay_line_0.stop_strong.t45 vernier_delay_line_0.saff_delay_unit_2/saff_2_0.sense_amplifier_0.out2.t0 VDD.t452 sky130_fd_pr__pfet_01v8 ad=0.87 pd=6.58 as=0.435 ps=3.29 w=3 l=0.15
X126 a_4168_1376# vernier_delay_line_0.saff_delay_unit_1/saff_2_0.sense_amplifier_0.out1.t5 VSS.t344 VSS.t343 sky130_fd_pr__nfet_01v8 ad=0.29 pd=2.58 as=0.145 ps=1.29 w=1 l=0.15
X127 a_5646_2192.t3 vernier_delay_line_0.stop_strong.t46 VSS.t364 VSS.t363 sky130_fd_pr__nfet_01v8 ad=0.435 pd=3.29 as=0.435 ps=3.29 w=3 l=0.15
X128 vernier_delay_line_0.saff_delay_unit_4/saff_2_0.nq a_11014_1376# a_10976_730# VDD.t491 sky130_fd_pr__pfet_01v8 ad=0.435 pd=3.29 as=0.435 ps=3.29 w=3 l=0.15
X129 a_17056_2192.t6 vernier_delay_line_0.saff_delay_unit_7/saff_2_0.nd.t9 a_17320_2192.t3 VSS.t75 sky130_fd_pr__nfet_01v8 ad=0.435 pd=3.29 as=0.435 ps=3.29 w=3 l=0.15
X130 VSS.t333 vernier_delay_line_0.stop_strong.t47 a_3364_2192.t4 VSS.t332 sky130_fd_pr__nfet_01v8 ad=0.435 pd=3.29 as=0.435 ps=3.29 w=3 l=0.15
X131 vernier_delay_line_0.stop_strong.t6 a_n6458_3464.t10 VDD.t89 VDD.t88 sky130_fd_pr__pfet_01v8 ad=0.87 pd=6.58 as=0.87 ps=6.58 w=3 l=0.15
X132 VSS.t287 diff_gen_0.delay_unit_2_4.in_2.t9 diff_gen_0.delay_unit_2_5.in_1.t2 VSS.t286 sky130_fd_pr__nfet_01v8 ad=0.145 pd=1.29 as=0.145 ps=1.29 w=1 l=0.15
X133 VSS.t467 vernier_delay_line_0.saff_delay_unit_3/delay_unit_2_0.in_1.t9 vernier_delay_line_0.saff_delay_unit_4/delay_unit_2_0.in_2.t6 VSS.t466 sky130_fd_pr__nfet_01v8 ad=0.145 pd=1.29 as=0.145 ps=1.29 w=1 l=0.15
X134 a_15038_2192.t3 vernier_delay_line_0.saff_delay_unit_7/delay_unit_2_0.in_2.t12 a_14774_2192.t3 VSS.t126 sky130_fd_pr__nfet_01v8 ad=0.435 pd=3.29 as=0.435 ps=3.29 w=3 l=0.15
X135 VDD.t430 vernier_delay_line_0.saff_delay_unit_4/saff_2_0.sense_amplifier_0.out2.t6 vernier_delay_line_0.saff_delay_unit_4/saff_2_0.sense_amplifier_0.out1.t3 VDD.t429 sky130_fd_pr__pfet_01v8 ad=0.87 pd=6.58 as=0.435 ps=3.29 w=3 l=0.15
X136 a_6034_730# a_5766_160# term_2.t1 VDD.t149 sky130_fd_pr__pfet_01v8 ad=0.435 pd=3.29 as=0.435 ps=3.29 w=3 l=0.15
X137 VDD.t293 vernier_delay_line_0.saff_delay_unit_5/delay_unit_2_0.in_1.t10 vernier_delay_line_0.saff_delay_unit_5/delay_unit_2_0.in_2.t0 VDD.t292 sky130_fd_pr__pfet_01v8 ad=0.435 pd=3.29 as=0.87 ps=6.58 w=3 l=0.15
X138 a_n7038_3464# a_n7328_3464# VSS.t11 VSS.t10 sky130_fd_pr__nfet_01v8 ad=0.29 pd=2.58 as=0.29 ps=2.58 w=1 l=0.15
X139 vernier_delay_line_0.start_pos.t3 diff_gen_0.delay_unit_2_6.in_2.t9 VSS.t192 VSS.t191 sky130_fd_pr__nfet_01v8 ad=0.145 pd=1.29 as=0.145 ps=1.29 w=1 l=0.15
X140 vernier_delay_line_0.saff_delay_unit_3/delay_unit_2_0.in_1.t0 vernier_delay_line_0.saff_delay_unit_2/delay_unit_2_0.in_2.t10 VDD.t130 VDD.t129 sky130_fd_pr__pfet_01v8 ad=0.87 pd=6.58 as=0.435 ps=3.29 w=3 l=0.15
X141 VSS.t510 a_13296_1376# vernier_delay_line_0.saff_delay_unit_5/saff_2_0.nq VSS.t509 sky130_fd_pr__nfet_01v8 ad=0.145 pd=1.29 as=0.145 ps=1.29 w=1 l=0.15
X142 VSS.t128 vernier_delay_line_0.saff_delay_unit_7/delay_unit_2_0.in_2.t13 vernier_delay_line_0.saff_delay_unit_7/saff_2_0.d.t3 VSS.t127 sky130_fd_pr__nfet_01v8 ad=0.145 pd=1.29 as=0.145 ps=1.29 w=1 l=0.15
X143 VSS.t257 vernier_delay_line_0.start_neg.t9 vernier_delay_line_0.start_pos.t0 VSS.t256 sky130_fd_pr__nfet_01v8 ad=0.145 pd=1.29 as=0.29 ps=2.58 w=1 l=0.15
X144 VSS.t448 diff_gen_0.delay_unit_2_3.in_1.t9 diff_gen_0.delay_unit_2_4.in_2.t2 VSS.t447 sky130_fd_pr__nfet_01v8 ad=0.145 pd=1.29 as=0.145 ps=1.29 w=1 l=0.15
X145 VDD.t144 vernier_delay_line_0.saff_delay_unit_3/saff_2_0.sense_amplifier_0.out2.t4 vernier_delay_line_0.saff_delay_unit_3/saff_2_0.sense_amplifier_0.out1.t2 VDD.t143 sky130_fd_pr__pfet_01v8 ad=0.87 pd=6.58 as=0.435 ps=3.29 w=3 l=0.15
X146 VDD.t376 diff_gen_0.delay_unit_2_1.in_1.t9 diff_gen_0.delay_unit_2_1.in_2.t7 VDD.t375 sky130_fd_pr__pfet_01v8 ad=0.435 pd=3.29 as=0.87 ps=6.58 w=3 l=0.15
X147 VDD.t99 vernier_delay_line_0.saff_delay_unit_1/delay_unit_2_0.in_2.t10 vernier_delay_line_0.saff_delay_unit_2/delay_unit_2_0.in_1.t1 VDD.t98 sky130_fd_pr__pfet_01v8 ad=0.435 pd=3.29 as=0.435 ps=3.29 w=3 l=0.15
X148 a_1346_2192.t1 vernier_delay_line_0.saff_delay_unit_0/saff_2_0.sense_amplifier_0.out1.t4 vernier_delay_line_0.saff_delay_unit_0/saff_2_0.sense_amplifier_0.out2.t3 VSS.t308 sky130_fd_pr__nfet_01v8 ad=0.435 pd=3.29 as=0.87 ps=6.58 w=3 l=0.15
X149 diff_gen_0.delay_unit_2_6.in_2.t6 diff_gen_0.delay_unit_2_5.in_1.t9 VDD.t335 VDD.t334 sky130_fd_pr__pfet_01v8 ad=0.87 pd=6.58 as=0.435 ps=3.29 w=3 l=0.15
X150 VSS.t372 vernier_delay_line_0.saff_delay_unit_0/saff_2_0.sense_amplifier_0.out2.t6 a_1202_160# VSS.t371 sky130_fd_pr__nfet_01v8 ad=0.145 pd=1.29 as=0.29 ps=2.58 w=1 l=0.15
X151 VSS.t316 diff_gen_0.delay_unit_2_2.in_2.t9 diff_gen_0.delay_unit_2_2.in_1.t6 VSS.t315 sky130_fd_pr__nfet_01v8 ad=0.145 pd=1.29 as=0.29 ps=2.58 w=1 l=0.15
X152 a_5734_2192# vernier_delay_line_0.saff_delay_unit_3/delay_unit_2_0.in_1.t10 a_5646_2192.t7 VSS.t463 sky130_fd_pr__nfet_01v8 ad=0.435 pd=3.29 as=0.435 ps=3.29 w=3 l=0.15
X153 diff_gen_0.delay_unit_2_6.in_2.t4 diff_gen_0.delay_unit_2_5.in_1.t10 VSS.t506 VSS.t505 sky130_fd_pr__nfet_01v8 ad=0.145 pd=1.29 as=0.145 ps=1.29 w=1 l=0.15
X154 a_8732_1376# vernier_delay_line_0.saff_delay_unit_3/saff_2_0.sense_amplifier_0.out1.t5 VDD.t1 VDD.t0 sky130_fd_pr__pfet_01v8 ad=0.87 pd=6.58 as=0.435 ps=3.29 w=3 l=0.15
X155 vernier_delay_line_0.stop_strong.t7 a_n6458_3464.t11 VDD.t91 VDD.t90 sky130_fd_pr__pfet_01v8 ad=0.87 pd=6.58 as=0.87 ps=6.58 w=3 l=0.15
X156 VDD.t186 vernier_delay_line_0.saff_delay_unit_1/delay_unit_2_0.in_1.t11 vernier_delay_line_0.saff_delay_unit_2/delay_unit_2_0.in_2.t7 VDD.t185 sky130_fd_pr__pfet_01v8 ad=0.435 pd=3.29 as=0.435 ps=3.29 w=3 l=0.15
X157 a_7928_2192.t8 vernier_delay_line_0.stop_strong.t48 VSS.t186 VSS.t185 sky130_fd_pr__nfet_01v8 ad=0.435 pd=3.29 as=0.435 ps=3.29 w=3 l=0.15
X158 vernier_delay_line_0.saff_delay_unit_1/delay_unit_2_0.in_2.t6 vernier_delay_line_0.start_pos.t9 VDD.t480 VDD.t479 sky130_fd_pr__pfet_01v8 ad=0.435 pd=3.29 as=0.435 ps=3.29 w=3 l=0.15
X159 VSS.t277 vernier_delay_line_0.stop_strong.t49 a_5646_2192.t2 VSS.t276 sky130_fd_pr__nfet_01v8 ad=0.435 pd=3.29 as=0.435 ps=3.29 w=3 l=0.15
X160 VSS.t139 vernier_delay_line_0.saff_delay_unit_7/saff_2_0.nd.t10 vernier_delay_line_0.delay_unit_2_0.out_1.t2 VSS.t138 sky130_fd_pr__nfet_01v8 ad=0.145 pd=1.29 as=0.145 ps=1.29 w=1 l=0.15
X161 VDD.t263 diff_gen_0.delay_unit_2_6.in_2.t10 diff_gen_0.delay_unit_2_6.in_1.t6 VDD.t262 sky130_fd_pr__pfet_01v8 ad=0.435 pd=3.29 as=0.87 ps=6.58 w=3 l=0.15
X162 vernier_delay_line_0.stop_strong.t8 a_n6458_3464.t12 VSS.t121 VSS.t120 sky130_fd_pr__nfet_01v8 ad=0.29 pd=2.58 as=0.29 ps=2.58 w=1 l=0.15
X163 VDD.t196 vernier_delay_line_0.stop_strong.t50 vernier_delay_line_0.saff_delay_unit_0/saff_2_0.sense_amplifier_0.out2.t1 VDD.t195 sky130_fd_pr__pfet_01v8 ad=0.87 pd=6.58 as=0.435 ps=3.29 w=3 l=0.15
X164 vernier_delay_line_0.saff_delay_unit_6/saff_2_0.sense_amplifier_0.out1.t2 vernier_delay_line_0.stop_strong.t51 VDD.t250 VDD.t249 sky130_fd_pr__pfet_01v8 ad=0.435 pd=3.29 as=0.87 ps=6.58 w=3 l=0.15
X165 diff_gen_0.delay_unit_2_3.in_1.t4 diff_gen_0.delay_unit_2_2.in_2.t10 VDD.t478 VDD.t477 sky130_fd_pr__pfet_01v8 ad=0.87 pd=6.58 as=0.435 ps=3.29 w=3 l=0.15
X166 term_4.t2 vernier_delay_line_0.saff_delay_unit_4/saff_2_0.sense_amplifier_0.out1.t6 VDD.t426 VDD.t425 sky130_fd_pr__pfet_01v8 ad=0.435 pd=3.29 as=0.435 ps=3.29 w=3 l=0.15
X167 vernier_delay_line_0.stop_strong.t9 a_n6458_3464.t13 VDD.t107 VDD.t106 sky130_fd_pr__pfet_01v8 ad=0.87 pd=6.58 as=0.87 ps=6.58 w=3 l=0.15