* NGSPICE file created from tt_um_13hihi31_tdc_parax.ext - technology: sky130A

.subckt tt_um_13hihi31_tdc_parax clk ena rst_n ua[1] ua[2] ua[3] ua[4] ua[5] ua[6]
+ ua[7] uio_in[1] uio_in[2] uio_in[3] uio_in[4] uio_in[5] uio_in[7] uio_oe[0] uio_oe[1]
+ uio_oe[2] uio_oe[3] uio_oe[4] uio_oe[5] uio_oe[6] uio_oe[7] uio_out[0] uio_out[1]
+ uio_out[2] uio_out[3] uio_out[4] uio_out[5] uio_out[6] uio_out[7] uo_out[1] ui_in[5]
+ uo_out[7] ui_in[7] uio_in[0] uo_out[6] ui_in[4] uo_out[5] ua[0] uo_out[4] uo_out[0]
+ ui_in[3] uo_out[3] ui_in[6] ui_in[2] ui_in[1] uio_in[6] VGND VDPWR ui_in[0] uo_out[2]
X0 tdc_0.vernier_delay_line_0.saff_delay_unit_4/delay_unit_2_0.in_2.t6 tdc_0.vernier_delay_line_0.saff_delay_unit_3/delay_unit_2_0.in_1.t8 VDPWR.t294 VDPWR.t293 sky130_fd_pr__pfet_01v8 ad=0.87 pd=6.58 as=0.435 ps=3.29 w=3 l=0.15
X1 tdc_0.start_buffer_0.start_delay.t7 tdc_0.start_buffer_0.start_buff.t10 VDPWR.t326 VDPWR.t82 sky130_fd_pr__pfet_01v8 ad=0.87 pd=6.58 as=0.87 ps=6.58 w=3 l=0.15
X2 a_24240_14314# variable_delay_short_0.variable_delay_unit_1.tristate_inverter_1.en.t2 VDPWR.t427 VDPWR.t426 sky130_fd_pr__pfet_01v8 ad=0.435 pd=3.29 as=0.87 ps=6.58 w=3 l=0.15
X3 a_12308_37860# tdc_0.vernier_delay_line_0.saff_delay_unit_6/saff_2_0.sense_amplifier_0.out1.t4 VGND.t336 VGND.t335 sky130_fd_pr__nfet_01v8 ad=0.29 pd=2.58 as=0.145 ps=1.29 w=1 l=0.15
X4 tdc_0.vernier_delay_line_0.stop_strong.t15 a_9330_16954.t8 VGND.t561 VGND.t105 sky130_fd_pr__nfet_01v8 ad=0.29 pd=2.58 as=0.29 ps=2.58 w=1 l=0.15
X5 a_10958_39338.t11 tdc_0.vernier_delay_line_0.saff_delay_unit_7/saff_2_0.nd.t8 a_10108_39954.t4 VGND.t41 sky130_fd_pr__nfet_01v8 ad=0.435 pd=3.29 as=0.435 ps=3.29 w=3 l=0.15
X6 a_10108_28544.t1 tdc_0.vernier_delay_line_0.saff_delay_unit_2/saff_2_0.sense_amplifier_0.out1.t4 tdc_0.vernier_delay_line_0.saff_delay_unit_2/saff_2_0.sense_amplifier_0.out2.t0 VGND.t76 sky130_fd_pr__nfet_01v8 ad=0.435 pd=3.29 as=0.87 ps=6.58 w=3 l=0.15
X7 VDPWR.t9 tdc_0.vernier_delay_line_0.saff_delay_unit_3/saff_2_0.nq a_12420_30598# VDPWR.t8 sky130_fd_pr__pfet_01v8 ad=0.87 pd=6.58 as=0.435 ps=3.29 w=3 l=0.15
X8 VGND.t1 input_stage_andpwr_0.fine_delay_unit_0.in a_24790_6936# VGND.t0 sky130_fd_pr__nfet_01v8 ad=0.145 pd=1.29 as=0.145 ps=1.29 w=1 l=0.15
X9 a_10958_23364.t7 tdc_0.vernier_delay_line_0.stop_strong.t32 VGND.t453 VGND.t41 sky130_fd_pr__nfet_01v8 ad=0.435 pd=3.29 as=0.435 ps=3.29 w=3 l=0.15
X10 a_24240_11366# variable_delay_short_0.variable_delay_unit_0.tristate_inverter_1.en.t2 VDPWR.t560 VDPWR.t559 sky130_fd_pr__pfet_01v8 ad=0.435 pd=3.29 as=0.87 ps=6.58 w=3 l=0.15
X11 tdc_0.vernier_delay_line_0.saff_delay_unit_1/saff_2_0.nq tdc_0.vernier_delay_line_0.saff_delay_unit_1/saff_2_0.sense_amplifier_0.out2.t4 a_13254_26412# VGND.t557 sky130_fd_pr__nfet_01v8 ad=0.145 pd=1.29 as=0.145 ps=1.29 w=1 l=0.15
X12 tdc_0.vernier_delay_line_0.stop_strong.t31 a_9330_16954.t9 VDPWR.t607 VDPWR.t24 sky130_fd_pr__pfet_01v8 ad=0.87 pd=6.58 as=0.87 ps=6.58 w=3 l=0.15
X13 a_10108_35390.t2 tdc_0.vernier_delay_line_0.saff_delay_unit_5/saff_2_0.sense_amplifier_0.out1.t4 tdc_0.vernier_delay_line_0.saff_delay_unit_5/saff_2_0.sense_amplifier_0.out2.t2 VGND.t76 sky130_fd_pr__nfet_01v8 ad=0.435 pd=3.29 as=0.87 ps=6.58 w=3 l=0.15
X14 tdc_0.vernier_delay_line_0.saff_delay_unit_5/saff_2_0.nq tdc_0.vernier_delay_line_0.saff_delay_unit_5/saff_2_0.sense_amplifier_0.out2.t4 a_13254_35540# VGND.t107 sky130_fd_pr__nfet_01v8 ad=0.145 pd=1.29 as=0.145 ps=1.29 w=1 l=0.15
X15 VDPWR.t360 tdc_0.vernier_delay_line_0.saff_delay_unit_3/saff_2_0.sense_amplifier_0.out2.t4 tdc_0.vernier_delay_line_0.saff_delay_unit_3/saff_2_0.sense_amplifier_0.out1.t2 VDPWR.t186 sky130_fd_pr__pfet_01v8 ad=0.87 pd=6.58 as=0.435 ps=3.29 w=3 l=0.15
X16 VGND.t290 variable_delay_short_0.variable_delay_unit_3.tristate_inverter_1.en.t2 a_25060_21092# VGND.t4 sky130_fd_pr__nfet_01v8 ad=0.145 pd=1.29 as=0.145 ps=1.29 w=1 l=0.15
X17 a_10108_39426# tdc_0.vernier_delay_line_0.saff_delay_unit_7/saff_2_0.d.t8 a_10958_39338.t1 VGND.t41 sky130_fd_pr__nfet_01v8 ad=0.435 pd=3.29 as=0.435 ps=3.29 w=3 l=0.15
X18 VDPWR.t149 variable_delay_short_0.variable_delay_unit_5.tristate_inverter_1.en.t2 a_24240_26106# VDPWR.t148 sky130_fd_pr__pfet_01v8 ad=0.435 pd=3.29 as=0.435 ps=3.29 w=3 l=0.15
X19 a_10958_37056.t8 tdc_0.vernier_delay_line_0.stop_strong.t33 VGND.t161 VGND.t41 sky130_fd_pr__nfet_01v8 ad=0.435 pd=3.29 as=0.435 ps=3.29 w=3 l=0.15
X20 tdc_0.vernier_delay_line_0.saff_delay_unit_1/saff_2_0.sense_amplifier_0.out2.t0 tdc_0.vernier_delay_line_0.saff_delay_unit_1/saff_2_0.sense_amplifier_0.out1.t4 a_10108_26262.t2 VGND.t76 sky130_fd_pr__nfet_01v8 ad=0.87 pd=6.58 as=0.435 ps=3.29 w=3 l=0.15
X21 variable_delay_short_0.variable_delay_unit_5.tristate_inverter_1.en.t1 VDPWR.t465 VDPWR.t467 VDPWR.t466 sky130_fd_pr__pfet_01v8 ad=0.87 pd=6.58 as=0.87 ps=6.58 w=3 l=0.15
X22 VGND.t162 tdc_0.vernier_delay_line_0.stop_strong.t34 a_10958_23364.t6 VGND.t41 sky130_fd_pr__nfet_01v8 ad=0.87 pd=6.58 as=0.435 ps=3.29 w=3 l=0.15
X23 a_9330_14344# a_9330_14054# VGND.t554 VGND.t28 sky130_fd_pr__nfet_01v8 ad=0.29 pd=2.58 as=0.29 ps=2.58 w=1 l=0.15
X24 uo_out[6].t0 a_12310_37398# VGND.t226 VGND.t225 sky130_fd_pr__nfet_01v8 ad=0.145 pd=1.29 as=0.145 ps=1.29 w=1 l=0.15
X25 VGND.t93 a_12308_26450# tdc_0.vernier_delay_line_0.saff_delay_unit_1/saff_2_0.nq VGND.t92 sky130_fd_pr__nfet_01v8 ad=0.145 pd=1.29 as=0.145 ps=1.29 w=1 l=0.15
X26 a_25060_24040# variable_delay_short_0.variable_delay_unit_4.tristate_inverter_1.en.t2 VGND.t203 VGND.t4 sky130_fd_pr__nfet_01v8 ad=0.145 pd=1.29 as=0.145 ps=1.29 w=1 l=0.15
X27 tdc_0.vernier_delay_line_0.saff_delay_unit_5/saff_2_0.sense_amplifier_0.out2.t1 tdc_0.vernier_delay_line_0.saff_delay_unit_5/saff_2_0.sense_amplifier_0.out1.t5 a_10108_35390.t1 VGND.t76 sky130_fd_pr__nfet_01v8 ad=0.87 pd=6.58 as=0.435 ps=3.29 w=3 l=0.15
X28 a_9330_16954.t3 a_9330_15794# VGND.t528 VGND.t105 sky130_fd_pr__nfet_01v8 ad=0.29 pd=2.58 as=0.29 ps=2.58 w=1 l=0.15
X29 VDPWR.t221 variable_delay_short_0.variable_delay_unit_4.tristate_inverter_1.en.t3 a_24240_23158# VDPWR.t220 sky130_fd_pr__pfet_01v8 ad=0.435 pd=3.29 as=0.435 ps=3.29 w=3 l=0.15
X30 a_7140_10670# variable_delay_dummy_0.out VDPWR.t469 VDPWR.t82 sky130_fd_pr__pfet_01v8 ad=0.87 pd=6.58 as=0.87 ps=6.58 w=3 l=0.15
X31 variable_delay_short_0.in a_23820_8460# VGND.t207 VGND.t0 sky130_fd_pr__nfet_01v8 ad=0.29 pd=2.58 as=0.145 ps=1.29 w=1 l=0.15
X32 a_25060_21092# variable_delay_short_0.variable_delay_unit_3.tristate_inverter_1.en.t3 VGND.t291 VGND.t4 sky130_fd_pr__nfet_01v8 ad=0.145 pd=1.29 as=0.145 ps=1.29 w=1 l=0.15
X33 VGND.t289 tdc_0.vernier_delay_line_0.saff_delay_unit_7/saff_2_0.d.t9 tdc_0.vernier_delay_line_0.delay_unit_2_0.out_2 VGND.t288 sky130_fd_pr__nfet_01v8 ad=0.145 pd=1.29 as=0.145 ps=1.29 w=1 l=0.15
X34 tdc_0.diff_gen_0.delay_unit_2_2.in_1.t6 tdc_0.diff_gen_0.delay_unit_2_1.in_2.t8 VDPWR.t413 VDPWR.t412 sky130_fd_pr__pfet_01v8 ad=0.87 pd=6.58 as=0.435 ps=3.29 w=3 l=0.15
X35 VDPWR.t540 tdc_0.diff_gen_0.delay_unit_2_5.in_2.t8 tdc_0.diff_gen_0.delay_unit_2_5.in_1.t6 VDPWR.t539 sky130_fd_pr__pfet_01v8 ad=0.435 pd=3.29 as=0.87 ps=6.58 w=3 l=0.15
X36 a_10108_39426# tdc_0.vernier_delay_line_0.saff_delay_unit_7/saff_2_0.d.t10 a_10958_39338.t0 VGND.t41 sky130_fd_pr__nfet_01v8 ad=0.435 pd=3.29 as=0.87 ps=6.58 w=3 l=0.15
X37 a_10958_37056.t2 tdc_0.vernier_delay_line_0.saff_delay_unit_7/delay_unit_2_0.in_1.t8 a_10108_37144# VGND.t41 sky130_fd_pr__nfet_01v8 ad=0.435 pd=3.29 as=0.435 ps=3.29 w=3 l=0.15
X38 VGND.t227 tdc_0.vernier_delay_line_0.stop_strong.t35 a_10958_34774.t8 VGND.t41 sky130_fd_pr__nfet_01v8 ad=0.435 pd=3.29 as=0.435 ps=3.29 w=3 l=0.15
X39 tdc_0.diff_gen_0.delay_unit_2_5.in_1.t7 tdc_0.diff_gen_0.delay_unit_2_4.in_2.t8 VDPWR.t542 VDPWR.t541 sky130_fd_pr__pfet_01v8 ad=0.87 pd=6.58 as=0.435 ps=3.29 w=3 l=0.15
X40 tdc_0.vernier_delay_line_0.saff_delay_unit_4/saff_2_0.nq a_12308_33296# a_12420_33258# VDPWR.t264 sky130_fd_pr__pfet_01v8 ad=0.435 pd=3.29 as=0.435 ps=3.29 w=3 l=0.15
X41 VGND.t269 tdc_0.vernier_delay_line_0.saff_delay_unit_3/delay_unit_2_0.in_1.t9 tdc_0.vernier_delay_line_0.saff_delay_unit_3/delay_unit_2_0.in_2.t5 VGND.t268 sky130_fd_pr__nfet_01v8 ad=0.145 pd=1.29 as=0.29 ps=2.58 w=1 l=0.15
X42 a_12308_24168# tdc_0.vernier_delay_line_0.saff_delay_unit_0/saff_2_0.sense_amplifier_0.out1.t4 VGND.t303 VGND.t302 sky130_fd_pr__nfet_01v8 ad=0.29 pd=2.58 as=0.145 ps=1.29 w=1 l=0.15
X43 a_13254_35162# tdc_0.vernier_delay_line_0.saff_delay_unit_5/saff_2_0.sense_amplifier_0.out1.t6 uo_out[5].t1 VGND.t99 sky130_fd_pr__nfet_01v8 ad=0.145 pd=1.29 as=0.145 ps=1.29 w=1 l=0.15
X44 tdc_0.vernier_delay_line_0.saff_delay_unit_4/delay_unit_2_0.in_1.t7 tdc_0.vernier_delay_line_0.saff_delay_unit_3/delay_unit_2_0.in_2.t8 VDPWR.t296 VDPWR.t295 sky130_fd_pr__pfet_01v8 ad=0.435 pd=3.29 as=0.435 ps=3.29 w=3 l=0.15
X45 a_25060_18144# variable_delay_short_0.variable_delay_unit_2.tristate_inverter_1.en.t2 VGND.t143 VGND.t4 sky130_fd_pr__nfet_01v8 ad=0.145 pd=1.29 as=0.145 ps=1.29 w=1 l=0.15
X46 variable_delay_short_0.variable_delay_unit_3.tristate_inverter_1.en.t0 ui_in[5].t0 VDPWR.t553 VDPWR.t250 sky130_fd_pr__pfet_01v8 ad=0.87 pd=6.58 as=0.87 ps=6.58 w=3 l=0.15
X47 tdc_0.diff_gen_0.delay_unit_2_4.in_1.t7 tdc_0.diff_gen_0.delay_unit_2_3.in_2.t8 VDPWR.t306 VDPWR.t305 sky130_fd_pr__pfet_01v8 ad=0.435 pd=3.29 as=0.435 ps=3.29 w=3 l=0.15
X48 VGND.t559 tdc_0.vernier_delay_line_0.saff_delay_unit_1/saff_2_0.sense_amplifier_0.out2.t5 a_12310_25988# VGND.t558 sky130_fd_pr__nfet_01v8 ad=0.145 pd=1.29 as=0.29 ps=2.58 w=1 l=0.15
X49 tdc_0.vernier_delay_line_0.saff_delay_unit_7/saff_2_0.nq a_12308_40142# a_12420_40104# VDPWR.t33 sky130_fd_pr__pfet_01v8 ad=0.435 pd=3.29 as=0.435 ps=3.29 w=3 l=0.15
X50 a_10108_28544.t2 tdc_0.vernier_delay_line_0.saff_delay_unit_3/delay_unit_2_0.in_2.t9 a_10958_27928.t12 VGND.t41 sky130_fd_pr__nfet_01v8 ad=0.435 pd=3.29 as=0.435 ps=3.29 w=3 l=0.15
X51 tdc_0.start_buffer_0.start_buff.t3 a_7140_10670# VGND.t150 VGND.t146 sky130_fd_pr__nfet_01v8 ad=0.29 pd=2.58 as=0.29 ps=2.58 w=1 l=0.15
X52 VDPWR.t242 variable_delay_short_0.variable_delay_unit_2.tristate_inverter_1.en.t3 a_24240_17262# VDPWR.t241 sky130_fd_pr__pfet_01v8 ad=0.435 pd=3.29 as=0.435 ps=3.29 w=3 l=0.15
X53 VGND.t250 tdc_0.diff_gen_0.delay_unit_2_5.in_1.t8 tdc_0.diff_gen_0.delay_unit_2_5.in_2.t0 VGND.t249 sky130_fd_pr__nfet_01v8 ad=0.145 pd=1.29 as=0.29 ps=2.58 w=1 l=0.15
X54 a_25060_15196# variable_delay_short_0.variable_delay_unit_1.tristate_inverter_1.en.t3 VGND.t359 VGND.t4 sky130_fd_pr__nfet_01v8 ad=0.145 pd=1.29 as=0.145 ps=1.29 w=1 l=0.15
X55 VGND.t115 tdc_0.vernier_delay_line_0.saff_delay_unit_4/saff_2_0.sense_amplifier_0.out2.t4 a_12310_32834# VGND.t114 sky130_fd_pr__nfet_01v8 ad=0.145 pd=1.29 as=0.29 ps=2.58 w=1 l=0.15
X56 a_16292_6966# input_stage_0.fine_delay_unit_0.in a_16292_6702# VGND.t30 sky130_fd_pr__nfet_01v8 ad=0.145 pd=1.29 as=0.145 ps=1.29 w=1 l=0.15
X57 VDPWR.t502 variable_delay_dummy_0.variable_delay_unit_1.tristate_inverter_1.en.t2 a_15680_14582# VDPWR.t501 sky130_fd_pr__pfet_01v8 ad=0.435 pd=3.29 as=0.435 ps=3.29 w=3 l=0.15
X58 a_10108_35390.t0 tdc_0.vernier_delay_line_0.saff_delay_unit_6/delay_unit_2_0.in_2.t8 a_10958_34774.t3 VGND.t41 sky130_fd_pr__nfet_01v8 ad=0.435 pd=3.29 as=0.435 ps=3.29 w=3 l=0.15
X59 a_10108_30826.t5 tdc_0.vernier_delay_line_0.saff_delay_unit_3/saff_2_0.sense_amplifier_0.out1.t4 tdc_0.vernier_delay_line_0.saff_delay_unit_3/saff_2_0.sense_amplifier_0.out2.t2 VGND.t76 sky130_fd_pr__nfet_01v8 ad=0.435 pd=3.29 as=0.87 ps=6.58 w=3 l=0.15
X60 a_9330_15794# a_9330_15504# VDPWR.t25 VDPWR.t24 sky130_fd_pr__pfet_01v8 ad=0.87 pd=6.58 as=0.87 ps=6.58 w=3 l=0.15
X61 VDPWR.t362 tdc_0.vernier_delay_line_0.saff_delay_unit_3/saff_2_0.sense_amplifier_0.out2.t5 tdc_0.vernier_delay_line_0.saff_delay_unit_3/saff_2_0.nq VDPWR.t361 sky130_fd_pr__pfet_01v8 ad=0.435 pd=3.29 as=0.435 ps=3.29 w=3 l=0.15
X62 VDPWR.t411 tdc_0.vernier_delay_line_0.saff_delay_unit_2/delay_unit_2_0.in_2.t8 tdc_0.vernier_delay_line_0.saff_delay_unit_3/delay_unit_2_0.in_1.t3 VDPWR.t410 sky130_fd_pr__pfet_01v8 ad=0.435 pd=3.29 as=0.435 ps=3.29 w=3 l=0.15
X63 tdc_0.diff_gen_0.delay_unit_2_5.in_2.t3 tdc_0.diff_gen_0.delay_unit_2_4.in_1.t8 VGND.t307 VGND.t306 sky130_fd_pr__nfet_01v8 ad=0.29 pd=2.58 as=0.145 ps=1.29 w=1 l=0.15
X64 VGND.t224 variable_delay_short_0.variable_delay_unit_2.tristate_inverter_1.en.t4 a_25060_18144# VGND.t4 sky130_fd_pr__nfet_01v8 ad=0.29 pd=2.58 as=0.145 ps=1.29 w=1 l=0.15
X65 tdc_0.diff_gen_0.delay_unit_2_6.in_1.t3 tdc_0.diff_gen_0.delay_unit_2_5.in_2.t9 VGND.t501 VGND.t500 sky130_fd_pr__nfet_01v8 ad=0.145 pd=1.29 as=0.145 ps=1.29 w=1 l=0.15
X66 VDPWR.t308 tdc_0.diff_gen_0.delay_unit_2_3.in_2.t9 tdc_0.diff_gen_0.delay_unit_2_4.in_1.t6 VDPWR.t307 sky130_fd_pr__pfet_01v8 ad=0.435 pd=3.29 as=0.435 ps=3.29 w=3 l=0.15
X67 a_10108_28544.t4 tdc_0.vernier_delay_line_0.saff_delay_unit_3/delay_unit_2_0.in_2.t10 a_10958_27928.t11 VGND.t41 sky130_fd_pr__nfet_01v8 ad=0.435 pd=3.29 as=0.435 ps=3.29 w=3 l=0.15
X68 a_24790_8050# input_stage_andpwr_0.fine_delay_unit_1.in a_23820_8460# VGND.t0 sky130_fd_pr__nfet_01v8 ad=0.145 pd=1.29 as=0.145 ps=1.29 w=1 l=0.15
X69 tdc_0.vernier_delay_line_0.stop_strong.t30 a_9330_16954.t10 VDPWR.t608 VDPWR.t24 sky130_fd_pr__pfet_01v8 ad=0.87 pd=6.58 as=0.87 ps=6.58 w=3 l=0.15
X70 variable_delay_short_0.variable_delay_unit_5.tristate_inverter_1.en.t0 VDPWR.t615 VGND.t410 VGND.t124 sky130_fd_pr__nfet_01v8 ad=0.29 pd=2.58 as=0.29 ps=2.58 w=1 l=0.15
X71 uo_out[0].t0 a_12310_23706# VGND.t3 VGND.t2 sky130_fd_pr__nfet_01v8 ad=0.145 pd=1.29 as=0.145 ps=1.29 w=1 l=0.15
X72 a_10958_25646.t3 tdc_0.vernier_delay_line_0.saff_delay_unit_2/delay_unit_2_0.in_2.t9 a_10108_26262.t3 VGND.t41 sky130_fd_pr__nfet_01v8 ad=0.435 pd=3.29 as=0.435 ps=3.29 w=3 l=0.15
X73 a_24240_17262# variable_delay_short_0.variable_delay_unit_2.tristate_inverter_1.en.t5 VDPWR.t244 VDPWR.t243 sky130_fd_pr__pfet_01v8 ad=0.435 pd=3.29 as=0.435 ps=3.29 w=3 l=0.15
X74 tdc_0.vernier_delay_line_0.saff_delay_unit_7/saff_2_0.sense_amplifier_0.out2.t2 tdc_0.vernier_delay_line_0.saff_delay_unit_7/saff_2_0.sense_amplifier_0.out1.t4 VDPWR.t383 VDPWR.t153 sky130_fd_pr__pfet_01v8 ad=0.435 pd=3.29 as=0.87 ps=6.58 w=3 l=0.15
X75 a_25060_26988# VGND.t17 variable_delay_short_0.variable_delay_unit_5.out VGND.t18 sky130_fd_pr__nfet_01v8 ad=0.145 pd=1.29 as=0.29 ps=2.58 w=1 l=0.15
X76 VDPWR.t423 tdc_0.start_buffer_0.start_buff.t11 tdc_0.diff_gen_0.delay_unit_2_1.in_2.t7 VDPWR.t422 sky130_fd_pr__pfet_01v8 ad=0.435 pd=3.29 as=0.435 ps=3.29 w=3 l=0.15
X77 tdc_0.vernier_delay_line_0.stop_strong.t29 a_9330_16954.t11 VDPWR.t609 VDPWR.t24 sky130_fd_pr__pfet_01v8 ad=0.87 pd=6.58 as=0.87 ps=6.58 w=3 l=0.15
X78 a_15680_14582# variable_delay_dummy_0.variable_delay_unit_1.tristate_inverter_1.en.t3 VDPWR.t504 VDPWR.t503 sky130_fd_pr__pfet_01v8 ad=0.435 pd=3.29 as=0.435 ps=3.29 w=3 l=0.15
X79 a_10958_34774.t9 tdc_0.vernier_delay_line_0.saff_delay_unit_6/delay_unit_2_0.in_2.t9 a_10108_35390.t3 VGND.t41 sky130_fd_pr__nfet_01v8 ad=0.435 pd=3.29 as=0.435 ps=3.29 w=3 l=0.15
X80 uo_out[3].t2 a_12310_30552# VGND.t553 VGND.t552 sky130_fd_pr__nfet_01v8 ad=0.145 pd=1.29 as=0.145 ps=1.29 w=1 l=0.15
X81 VGND.t100 variable_delay_dummy_0.variable_delay_unit_0.tristate_inverter_1.en.t2 a_16500_12516# VGND.t26 sky130_fd_pr__nfet_01v8 ad=0.145 pd=1.29 as=0.145 ps=1.29 w=1 l=0.15
X82 VGND.t480 tdc_0.diff_gen_0.delay_unit_2_2.in_2.t8 tdc_0.diff_gen_0.delay_unit_2_3.in_1.t2 VGND.t479 sky130_fd_pr__nfet_01v8 ad=0.145 pd=1.29 as=0.145 ps=1.29 w=1 l=0.15
X83 VGND.t228 tdc_0.vernier_delay_line_0.stop_strong.t36 a_10958_32492.t9 VGND.t41 sky130_fd_pr__nfet_01v8 ad=0.87 pd=6.58 as=0.435 ps=3.29 w=3 l=0.15
X84 tdc_0.vernier_delay_line_0.saff_delay_unit_3/delay_unit_2_0.in_1.t2 tdc_0.vernier_delay_line_0.saff_delay_unit_2/delay_unit_2_0.in_2.t10 VDPWR.t407 VDPWR.t406 sky130_fd_pr__pfet_01v8 ad=0.87 pd=6.58 as=0.435 ps=3.29 w=3 l=0.15
X85 VGND.t475 variable_delay_short_0.variable_delay_unit_5.tristate_inverter_1.en.t3 a_25060_26988# VGND.t474 sky130_fd_pr__nfet_01v8 ad=0.29 pd=2.58 as=0.145 ps=1.29 w=1 l=0.15
X86 VDPWR.t531 tdc_0.diff_gen_0.delay_unit_2_3.in_1.t8 tdc_0.diff_gen_0.delay_unit_2_4.in_2.t7 VDPWR.t530 sky130_fd_pr__pfet_01v8 ad=0.435 pd=3.29 as=0.435 ps=3.29 w=3 l=0.15
X87 VGND.t109 tdc_0.diff_gen_0.delay_unit_2_5.in_2.t10 tdc_0.diff_gen_0.delay_unit_2_6.in_1.t2 VGND.t108 sky130_fd_pr__nfet_01v8 ad=0.145 pd=1.29 as=0.145 ps=1.29 w=1 l=0.15
X88 a_10958_23364.t8 tdc_0.vernier_delay_line_0.saff_delay_unit_1/delay_unit_2_0.in_1.t8 a_10108_23452# VGND.t41 sky130_fd_pr__nfet_01v8 ad=0.435 pd=3.29 as=0.435 ps=3.29 w=3 l=0.15
X89 VGND.t537 input_stage_0.fine_delay_unit_1.in a_16292_8344# VGND.t30 sky130_fd_pr__nfet_01v8 ad=0.145 pd=1.29 as=0.145 ps=1.29 w=1 l=0.15
X90 VGND.t159 tdc_0.vernier_delay_line_0.stop_strong.t37 a_10958_39338.t7 VGND.t158 sky130_fd_pr__nfet_01v8 ad=0.87 pd=6.58 as=0.435 ps=3.29 w=3 l=0.15
X91 a_23820_7082# input_stage_andpwr_0.fine_delay_unit_0.in a_24790_6672# VGND.t0 sky130_fd_pr__nfet_01v8 ad=0.145 pd=1.29 as=0.145 ps=1.29 w=1 l=0.15
X92 VDPWR.t127 tdc_0.diff_gen_0.delay_unit_2_1.in_1.t8 tdc_0.diff_gen_0.delay_unit_2_1.in_2.t1 VDPWR.t126 sky130_fd_pr__pfet_01v8 ad=0.435 pd=3.29 as=0.87 ps=6.58 w=3 l=0.15
X93 VDPWR.t278 tdc_0.vernier_delay_line_0.saff_delay_unit_7/delay_unit_2_0.in_1.t9 tdc_0.vernier_delay_line_0.saff_delay_unit_7/delay_unit_2_0.in_2.t2 VDPWR.t277 sky130_fd_pr__pfet_01v8 ad=0.435 pd=3.29 as=0.87 ps=6.58 w=3 l=0.15
X94 a_10108_34862# tdc_0.vernier_delay_line_0.saff_delay_unit_5/saff_2_0.sense_amplifier_0.out2.t5 tdc_0.vernier_delay_line_0.saff_delay_unit_5/saff_2_0.sense_amplifier_0.out1.t1 VGND.t76 sky130_fd_pr__nfet_01v8 ad=0.435 pd=3.29 as=0.87 ps=6.58 w=3 l=0.15
X95 VGND.t160 tdc_0.vernier_delay_line_0.stop_strong.t38 a_10958_25646.t11 VGND.t41 sky130_fd_pr__nfet_01v8 ad=0.435 pd=3.29 as=0.435 ps=3.29 w=3 l=0.15
X96 VGND.t507 tdc_0.diff_gen_0.delay_unit_2_4.in_2.t9 tdc_0.diff_gen_0.delay_unit_2_4.in_1.t0 VGND.t506 sky130_fd_pr__nfet_01v8 ad=0.145 pd=1.29 as=0.29 ps=2.58 w=1 l=0.15
X97 variable_delay_short_0.variable_delay_unit_3.tristate_inverter_1.en.t1 ui_in[5].t1 VGND.t524 VGND.t124 sky130_fd_pr__nfet_01v8 ad=0.29 pd=2.58 as=0.29 ps=2.58 w=1 l=0.15
X98 VDPWR.t353 tdc_0.diff_gen_0.delay_unit_2_4.in_1.t9 tdc_0.diff_gen_0.delay_unit_2_4.in_2.t4 VDPWR.t352 sky130_fd_pr__pfet_01v8 ad=0.435 pd=3.29 as=0.87 ps=6.58 w=3 l=0.15
X99 tdc_0.vernier_delay_line_0.stop_strong.t14 a_9330_16954.t12 VGND.t131 VGND.t105 sky130_fd_pr__nfet_01v8 ad=0.29 pd=2.58 as=0.29 ps=2.58 w=1 l=0.15
X100 VDPWR.t532 tdc_0.vernier_delay_line_0.stop_strong.t39 tdc_0.vernier_delay_line_0.saff_delay_unit_6/saff_2_0.sense_amplifier_0.out2.t3 VDPWR.t260 sky130_fd_pr__pfet_01v8 ad=0.87 pd=6.58 as=0.435 ps=3.29 w=3 l=0.15
X101 tdc_0.diff_gen_0.delay_unit_2_2.in_2.t2 tdc_0.diff_gen_0.delay_unit_2_1.in_1.t9 VDPWR.t88 VDPWR.t87 sky130_fd_pr__pfet_01v8 ad=0.87 pd=6.58 as=0.435 ps=3.29 w=3 l=0.15
X102 a_10958_34774.t10 tdc_0.vernier_delay_line_0.saff_delay_unit_6/delay_unit_2_0.in_2.t10 a_10108_35390.t4 VGND.t41 sky130_fd_pr__nfet_01v8 ad=0.435 pd=3.29 as=0.435 ps=3.29 w=3 l=0.15
X103 a_13254_30598# tdc_0.vernier_delay_line_0.saff_delay_unit_3/saff_2_0.sense_amplifier_0.out1.t5 uo_out[3].t0 VGND.t311 sky130_fd_pr__nfet_01v8 ad=0.145 pd=1.29 as=0.145 ps=1.29 w=1 l=0.15
X104 tdc_0.diff_gen_0.delay_unit_2_3.in_1.t5 tdc_0.diff_gen_0.delay_unit_2_2.in_2.t9 VDPWR.t314 VDPWR.t313 sky130_fd_pr__pfet_01v8 ad=0.435 pd=3.29 as=0.435 ps=3.29 w=3 l=0.15
X105 tdc_0.diff_gen_0.delay_unit_2_4.in_1.t4 tdc_0.diff_gen_0.delay_unit_2_3.in_2.t10 VGND.t279 VGND.t278 sky130_fd_pr__nfet_01v8 ad=0.29 pd=2.58 as=0.145 ps=1.29 w=1 l=0.15
X106 VGND.t490 tdc_0.vernier_delay_line_0.stop_strong.t40 a_10958_32492.t8 VGND.t41 sky130_fd_pr__nfet_01v8 ad=0.435 pd=3.29 as=0.435 ps=3.29 w=3 l=0.15
X107 variable_delay_short_0.variable_delay_unit_5.forward.t1 variable_delay_short_0.variable_delay_unit_5.in.t2 VDPWR.t579 VDPWR.t466 sky130_fd_pr__pfet_01v8 ad=0.87 pd=6.58 as=0.87 ps=6.58 w=3 l=0.15
X108 a_9330_14344# a_9330_14054# VDPWR.t597 VDPWR.t24 sky130_fd_pr__pfet_01v8 ad=0.87 pd=6.58 as=0.87 ps=6.58 w=3 l=0.15
X109 tdc_0.vernier_delay_line_0.saff_delay_unit_7/delay_unit_2_0.in_1.t5 tdc_0.vernier_delay_line_0.saff_delay_unit_6/delay_unit_2_0.in_2.t11 VGND.t434 VGND.t433 sky130_fd_pr__nfet_01v8 ad=0.29 pd=2.58 as=0.145 ps=1.29 w=1 l=0.15
X110 a_16292_8080# input_stage_0.fine_delay_unit_1.in a_15322_8490# VGND.t30 sky130_fd_pr__nfet_01v8 ad=0.145 pd=1.29 as=0.29 ps=2.58 w=1 l=0.15
X111 tdc_0.diff_gen_0.delay_unit_2_1.in_2.t4 tdc_0.start_buffer_0.start_buff.t12 VGND.t384 VGND.t383 sky130_fd_pr__nfet_01v8 ad=0.29 pd=2.58 as=0.145 ps=1.29 w=1 l=0.15
X112 a_10108_25734# tdc_0.vernier_delay_line_0.saff_delay_unit_2/delay_unit_2_0.in_1.t8 a_10958_25646.t12 VGND.t41 sky130_fd_pr__nfet_01v8 ad=0.435 pd=3.29 as=0.435 ps=3.29 w=3 l=0.15
X113 a_24790_6672# input_stage_andpwr_0.fine_delay_unit_0.in a_23820_7082# VGND.t0 sky130_fd_pr__nfet_01v8 ad=0.145 pd=1.29 as=0.145 ps=1.29 w=1 l=0.15
X114 a_9330_16954.t7 a_9330_15794# VDPWR.t557 VDPWR.t24 sky130_fd_pr__pfet_01v8 ad=0.87 pd=6.58 as=0.87 ps=6.58 w=3 l=0.15
X115 tdc_0.diff_gen_0.delay_unit_2_3.in_2.t7 tdc_0.diff_gen_0.delay_unit_2_2.in_1.t8 VDPWR.t344 VDPWR.t343 sky130_fd_pr__pfet_01v8 ad=0.435 pd=3.29 as=0.435 ps=3.29 w=3 l=0.15
X116 tdc_0.vernier_delay_line_0.saff_delay_unit_7/saff_2_0.nd.t5 tdc_0.vernier_delay_line_0.saff_delay_unit_7/delay_unit_2_0.in_1.t10 VDPWR.t550 VDPWR.t549 sky130_fd_pr__pfet_01v8 ad=0.435 pd=3.29 as=0.435 ps=3.29 w=3 l=0.15
X117 variable_delay_dummy_0.variable_delay_unit_1.tristate_inverter_1.en.t0 VDPWR.t616 VGND.t409 VGND.t74 sky130_fd_pr__nfet_01v8 ad=0.29 pd=2.58 as=0.29 ps=2.58 w=1 l=0.15
X118 a_10958_23364.t5 tdc_0.vernier_delay_line_0.stop_strong.t41 VGND.t325 VGND.t41 sky130_fd_pr__nfet_01v8 ad=0.435 pd=3.29 as=0.435 ps=3.29 w=3 l=0.15
X119 a_10108_30826.t3 tdc_0.vernier_delay_line_0.saff_delay_unit_4/delay_unit_2_0.in_2.t8 a_10958_30210.t8 VGND.t41 sky130_fd_pr__nfet_01v8 ad=0.435 pd=3.29 as=0.435 ps=3.29 w=3 l=0.15
X120 tdc_0.diff_gen_0.delay_unit_2_4.in_2.t2 tdc_0.diff_gen_0.delay_unit_2_3.in_1.t9 VGND.t179 VGND.t178 sky130_fd_pr__nfet_01v8 ad=0.29 pd=2.58 as=0.145 ps=1.29 w=1 l=0.15
X121 a_25060_20210# ui_in[5].t2 VGND.t261 VGND.t4 sky130_fd_pr__nfet_01v8 ad=0.145 pd=1.29 as=0.29 ps=2.58 w=1 l=0.15
X122 a_10958_30210.t4 tdc_0.vernier_delay_line_0.stop_strong.t42 VGND.t326 VGND.t41 sky130_fd_pr__nfet_01v8 ad=0.435 pd=3.29 as=0.435 ps=3.29 w=3 l=0.15
X123 a_10108_23980.t5 tdc_0.vernier_delay_line_0.saff_delay_unit_1/delay_unit_2_0.in_2.t8 a_10958_23364.t9 VGND.t41 sky130_fd_pr__nfet_01v8 ad=0.435 pd=3.29 as=0.435 ps=3.29 w=3 l=0.15
X124 variable_delay_short_0.variable_delay_unit_4.in.t1 variable_delay_short_0.variable_delay_unit_3.in.t2 VDPWR.t251 VDPWR.t250 sky130_fd_pr__pfet_01v8 ad=0.87 pd=6.58 as=0.87 ps=6.58 w=3 l=0.15
X125 VDPWR.t415 tdc_0.diff_gen_0.delay_unit_2_1.in_2.t9 tdc_0.diff_gen_0.delay_unit_2_1.in_1.t1 VDPWR.t414 sky130_fd_pr__pfet_01v8 ad=0.435 pd=3.29 as=0.87 ps=6.58 w=3 l=0.15
X126 a_15322_8490# input_stage_0.fine_delay_unit_1.in a_16292_8080# VGND.t30 sky130_fd_pr__nfet_01v8 ad=0.145 pd=1.29 as=0.145 ps=1.29 w=1 l=0.15
X127 tdc_0.diff_gen_0.delay_unit_2_5.in_2.t1 tdc_0.diff_gen_0.delay_unit_2_4.in_1.t10 VGND.t305 VGND.t304 sky130_fd_pr__nfet_01v8 ad=0.145 pd=1.29 as=0.145 ps=1.29 w=1 l=0.15
X128 a_10958_39338.t6 tdc_0.vernier_delay_line_0.stop_strong.t43 VGND.t512 VGND.t41 sky130_fd_pr__nfet_01v8 ad=0.435 pd=3.29 as=0.435 ps=3.29 w=3 l=0.15
X129 VDPWR.t517 tdc_0.vernier_delay_line_0.saff_delay_unit_6/delay_unit_2_0.in_1.t8 tdc_0.vernier_delay_line_0.saff_delay_unit_7/delay_unit_2_0.in_2.t7 VDPWR.t516 sky130_fd_pr__pfet_01v8 ad=0.435 pd=3.29 as=0.435 ps=3.29 w=3 l=0.15
X130 tdc_0.diff_gen_0.delay_unit_2_1.in_1.t7 tdc_0.start_buffer_0.start_delay.t8 VDPWR.t506 VDPWR.t505 sky130_fd_pr__pfet_01v8 ad=0.87 pd=6.58 as=0.435 ps=3.29 w=3 l=0.15
X131 VDPWR.t286 ui_in[5].t3 a_24240_21092# VDPWR.t285 sky130_fd_pr__pfet_01v8 ad=0.435 pd=3.29 as=0.435 ps=3.29 w=3 l=0.15
X132 a_13254_24130# uo_out[0].t4 VGND.t342 VGND.t341 sky130_fd_pr__nfet_01v8 ad=0.145 pd=1.29 as=0.29 ps=2.58 w=1 l=0.15
X133 VGND.t360 ui_in[5].t4 a_25060_20210# VGND.t4 sky130_fd_pr__nfet_01v8 ad=0.145 pd=1.29 as=0.145 ps=1.29 w=1 l=0.15
X134 VGND.t301 tdc_0.diff_gen_0.delay_unit_2_2.in_1.t9 tdc_0.diff_gen_0.delay_unit_2_3.in_2.t4 VGND.t300 sky130_fd_pr__nfet_01v8 ad=0.145 pd=1.29 as=0.145 ps=1.29 w=1 l=0.15
X135 a_13254_33258# uo_out[4].t4 VGND.t484 VGND.t483 sky130_fd_pr__nfet_01v8 ad=0.145 pd=1.29 as=0.29 ps=2.58 w=1 l=0.15
X136 VGND.t513 tdc_0.vernier_delay_line_0.stop_strong.t44 a_10958_30210.t3 VGND.t41 sky130_fd_pr__nfet_01v8 ad=0.435 pd=3.29 as=0.435 ps=3.29 w=3 l=0.15
X137 a_16500_15464# variable_delay_dummy_0.variable_delay_unit_1.tristate_inverter_1.en.t4 VGND.t503 VGND.t502 sky130_fd_pr__nfet_01v8 ad=0.145 pd=1.29 as=0.145 ps=1.29 w=1 l=0.15
X138 a_24240_24040# ui_in[4].t0 VDPWR.t98 VDPWR.t97 sky130_fd_pr__pfet_01v8 ad=0.435 pd=3.29 as=0.435 ps=3.29 w=3 l=0.15
X139 VGND.t523 tdc_0.vernier_delay_line_0.saff_delay_unit_7/delay_unit_2_0.in_1.t11 tdc_0.vernier_delay_line_0.saff_delay_unit_7/saff_2_0.nd.t6 VGND.t522 sky130_fd_pr__nfet_01v8 ad=0.145 pd=1.29 as=0.145 ps=1.29 w=1 l=0.15
X140 a_10108_34862# tdc_0.vernier_delay_line_0.saff_delay_unit_6/delay_unit_2_0.in_1.t9 a_10958_34774.t12 VGND.t41 sky130_fd_pr__nfet_01v8 ad=0.435 pd=3.29 as=0.87 ps=6.58 w=3 l=0.15
X141 tdc_0.vernier_delay_line_0.saff_delay_unit_3/delay_unit_2_0.in_2.t7 tdc_0.vernier_delay_line_0.saff_delay_unit_2/delay_unit_2_0.in_1.t9 VDPWR.t527 VDPWR.t526 sky130_fd_pr__pfet_01v8 ad=0.87 pd=6.58 as=0.435 ps=3.29 w=3 l=0.15
X142 tdc_0.vernier_delay_line_0.saff_delay_unit_7/saff_2_0.d.t3 tdc_0.vernier_delay_line_0.saff_delay_unit_7/delay_unit_2_0.in_2.t8 VDPWR.t524 VDPWR.t523 sky130_fd_pr__pfet_01v8 ad=0.435 pd=3.29 as=0.435 ps=3.29 w=3 l=0.15
X143 a_13254_40104# uo_out[7].t4 VGND.t202 VGND.t201 sky130_fd_pr__nfet_01v8 ad=0.145 pd=1.29 as=0.29 ps=2.58 w=1 l=0.15
X144 variable_delay_short_0.variable_delay_unit_5.forward.t0 variable_delay_short_0.variable_delay_unit_5.in.t3 VGND.t192 VGND.t124 sky130_fd_pr__nfet_01v8 ad=0.29 pd=2.58 as=0.29 ps=2.58 w=1 l=0.15
X145 a_9330_15214# a_9330_14924# VGND.t94 VGND.t28 sky130_fd_pr__nfet_01v8 ad=0.29 pd=2.58 as=0.29 ps=2.58 w=1 l=0.15
X146 a_24240_21092# ui_in[5].t5 VDPWR.t417 VDPWR.t416 sky130_fd_pr__pfet_01v8 ad=0.435 pd=3.29 as=0.435 ps=3.29 w=3 l=0.15
X147 tdc_0.vernier_delay_line_0.saff_delay_unit_6/delay_unit_2_0.in_2.t0 tdc_0.vernier_delay_line_0.saff_delay_unit_5/delay_unit_2_0.in_1.t8 VDPWR.t62 VDPWR.t61 sky130_fd_pr__pfet_01v8 ad=0.87 pd=6.58 as=0.435 ps=3.29 w=3 l=0.15
X148 VDPWR.t143 tdc_0.vernier_delay_line_0.saff_delay_unit_2/saff_2_0.nq a_12420_28316# VDPWR.t142 sky130_fd_pr__pfet_01v8 ad=0.87 pd=6.58 as=0.435 ps=3.29 w=3 l=0.15
X149 VGND.t102 tdc_0.diff_gen_0.delay_unit_2_3.in_1.t10 tdc_0.diff_gen_0.delay_unit_2_3.in_2.t0 VGND.t101 sky130_fd_pr__nfet_01v8 ad=0.145 pd=1.29 as=0.29 ps=2.58 w=1 l=0.15
X150 a_25060_18144# variable_delay_short_0.variable_delay_unit_3.out variable_delay_short_0.variable_delay_unit_2.out VGND.t4 sky130_fd_pr__nfet_01v8 ad=0.145 pd=1.29 as=0.29 ps=2.58 w=1 l=0.15
X151 tdc_0.diff_gen_0.delay_unit_2_2.in_1.t3 tdc_0.diff_gen_0.delay_unit_2_1.in_2.t10 VGND.t275 VGND.t274 sky130_fd_pr__nfet_01v8 ad=0.145 pd=1.29 as=0.145 ps=1.29 w=1 l=0.15
X152 tdc_0.vernier_delay_line_0.saff_delay_unit_2/delay_unit_2_0.in_2.t7 tdc_0.vernier_delay_line_0.saff_delay_unit_1/delay_unit_2_0.in_1.t9 VDPWR.t429 VDPWR.t428 sky130_fd_pr__pfet_01v8 ad=0.435 pd=3.29 as=0.435 ps=3.29 w=3 l=0.15
X153 tdc_0.vernier_delay_line_0.stop_strong.t13 a_9330_16954.t13 VGND.t132 VGND.t105 sky130_fd_pr__nfet_01v8 ad=0.29 pd=2.58 as=0.29 ps=2.58 w=1 l=0.15
X154 tdc_0.vernier_delay_line_0.start_pos.t5 tdc_0.diff_gen_0.delay_unit_2_6.in_2.t8 VDPWR.t575 VDPWR.t574 sky130_fd_pr__pfet_01v8 ad=0.87 pd=6.58 as=0.435 ps=3.29 w=3 l=0.15
X155 tdc_0.vernier_delay_line_0.saff_delay_unit_6/saff_2_0.nq a_12308_37860# a_12420_37822# VDPWR.t533 sky130_fd_pr__pfet_01v8 ad=0.435 pd=3.29 as=0.435 ps=3.29 w=3 l=0.15
X156 VGND.t152 ui_in[7].t0 a_25060_14314# VGND.t4 sky130_fd_pr__nfet_01v8 ad=0.145 pd=1.29 as=0.145 ps=1.29 w=1 l=0.15
X157 tdc_0.vernier_delay_line_0.saff_delay_unit_3/saff_2_0.nq tdc_0.vernier_delay_line_0.saff_delay_unit_3/saff_2_0.sense_amplifier_0.out2.t6 a_13254_30976# VGND.t140 sky130_fd_pr__nfet_01v8 ad=0.145 pd=1.29 as=0.145 ps=1.29 w=1 l=0.15
X158 tdc_0.vernier_delay_line_0.saff_delay_unit_7/delay_unit_2_0.in_2.t4 tdc_0.vernier_delay_line_0.saff_delay_unit_6/delay_unit_2_0.in_1.t10 VGND.t182 VGND.t181 sky130_fd_pr__nfet_01v8 ad=0.29 pd=2.58 as=0.145 ps=1.29 w=1 l=0.15
X159 tdc_0.vernier_delay_line_0.stop_strong.t12 a_9330_16954.t14 VGND.t133 VGND.t105 sky130_fd_pr__nfet_01v8 ad=0.29 pd=2.58 as=0.29 ps=2.58 w=1 l=0.15
X160 VDPWR.t321 tdc_0.vernier_delay_line_0.saff_delay_unit_2/saff_2_0.sense_amplifier_0.out2.t4 tdc_0.vernier_delay_line_0.saff_delay_unit_2/saff_2_0.sense_amplifier_0.out1.t2 VDPWR.t315 sky130_fd_pr__pfet_01v8 ad=0.87 pd=6.58 as=0.435 ps=3.29 w=3 l=0.15
X161 tdc_0.diff_gen_0.delay_unit_2_2.in_2.t0 tdc_0.diff_gen_0.delay_unit_2_1.in_1.t10 VGND.t47 VGND.t46 sky130_fd_pr__nfet_01v8 ad=0.145 pd=1.29 as=0.145 ps=1.29 w=1 l=0.15
X162 a_24240_18144# ui_in[6].t0 VDPWR.t591 VDPWR.t590 sky130_fd_pr__pfet_01v8 ad=0.435 pd=3.29 as=0.435 ps=3.29 w=3 l=0.15
X163 tdc_0.vernier_delay_line_0.stop_strong.t11 a_9330_16954.t15 VGND.t106 VGND.t105 sky130_fd_pr__nfet_01v8 ad=0.29 pd=2.58 as=0.29 ps=2.58 w=1 l=0.15
X164 a_25284_5108# uio_in[6].t0 VGND.t154 VGND.t153 sky130_fd_pr__nfet_01v8 ad=0.29 pd=2.29 as=0.58 ps=4.58 w=2 l=0.15
X165 tdc_0.vernier_delay_line_0.saff_delay_unit_1/saff_2_0.sense_amplifier_0.out2.t1 tdc_0.vernier_delay_line_0.saff_delay_unit_1/saff_2_0.sense_amplifier_0.out1.t5 VDPWR.t219 VDPWR.t214 sky130_fd_pr__pfet_01v8 ad=0.435 pd=3.29 as=0.87 ps=6.58 w=3 l=0.15