* NGSPICE file created from variable_delay_short_parax.ext - technology: sky130A

.subckt variable_delay_short_parax in en_1 out en_2 en_3 en_0 en_4 VSS VDD
X0 a_16354_772# variable_delay_unit_5.tristate_inverter_1.en.t2 VDD.t86 VDD.t85 sky130_fd_pr__pfet_01v8 ad=0.435 pd=3.29 as=0.435 ps=3.29 w=3 l=0.15
X1 VDD.t54 en_1.t0 a_5444_772# VDD.t53 sky130_fd_pr__pfet_01v8 ad=0.87 pd=6.58 as=0.435 ps=3.29 w=3 l=0.15
X2 VSS.t71 variable_delay_unit_2.tristate_inverter_1.en.t2 a_8392_352# VSS.t70 sky130_fd_pr__nfet_01v8 ad=0.145 pd=1.29 as=0.145 ps=1.29 w=1 l=0.15
X3 variable_delay_unit_4.in.t1 variable_delay_unit_3.in.t2 VDD.t4 VDD.t3 sky130_fd_pr__pfet_01v8 ad=0.87 pd=6.58 as=0.87 ps=6.58 w=3 l=0.15
X4 a_16354_352# VDD.t112 VSS.t79 VSS.t78 sky130_fd_pr__nfet_01v8 ad=0.145 pd=1.29 as=0.145 ps=1.29 w=1 l=0.15
X5 VDD.t24 en_1.t1 a_5444_772# VDD.t23 sky130_fd_pr__pfet_01v8 ad=0.435 pd=3.29 as=0.435 ps=3.29 w=3 l=0.15
X6 variable_delay_unit_3.in.t1 variable_delay_unit_2.in.t2 VDD.t40 VDD.t39 sky130_fd_pr__pfet_01v8 ad=0.87 pd=6.58 as=0.87 ps=6.58 w=3 l=0.15
X7 VDD.t50 en_0.t0 a_2496_772# VDD.t49 sky130_fd_pr__pfet_01v8 ad=0.87 pd=6.58 as=0.435 ps=3.29 w=3 l=0.15
X8 VDD.t80 VDD.t78 a_17236_772# VDD.t79 sky130_fd_pr__pfet_01v8 ad=0.435 pd=3.29 as=0.435 ps=3.29 w=3 l=0.15
X9 variable_delay_unit_4.in.t0 variable_delay_unit_3.in.t3 VSS.t18 VSS.t17 sky130_fd_pr__nfet_01v8 ad=0.29 pd=2.58 as=0.29 ps=2.58 w=1 l=0.15
X10 VSS.t36 variable_delay_unit_1.tristate_inverter_1.en.t2 a_5444_352# VSS.t35 sky130_fd_pr__nfet_01v8 ad=0.29 pd=2.58 as=0.145 ps=1.29 w=1 l=0.15
X11 variable_delay_unit_3.in.t0 variable_delay_unit_2.in.t3 VSS.t1 VSS.t0 sky130_fd_pr__nfet_01v8 ad=0.29 pd=2.58 as=0.29 ps=2.58 w=1 l=0.15
X12 VSS.t48 variable_delay_unit_1.tristate_inverter_1.en.t3 a_5444_352# VSS.t47 sky130_fd_pr__nfet_01v8 ad=0.145 pd=1.29 as=0.145 ps=1.29 w=1 l=0.15
X13 VSS.t85 variable_delay_unit_5.tristate_inverter_1.en.t3 a_17236_352# VSS.t84 sky130_fd_pr__nfet_01v8 ad=0.145 pd=1.29 as=0.145 ps=1.29 w=1 l=0.15
X14 VDD.t94 variable_delay_unit_2.tristate_inverter_1.en.t3 a_7510_772# VDD.t93 sky130_fd_pr__pfet_01v8 ad=0.435 pd=3.29 as=0.435 ps=3.29 w=3 l=0.15
X15 VSS.t50 variable_delay_unit_0.tristate_inverter_1.en.t2 a_2496_352# VSS.t49 sky130_fd_pr__nfet_01v8 ad=0.29 pd=2.58 as=0.145 ps=1.29 w=1 l=0.15
X16 variable_delay_unit_1.out variable_delay_unit_2.in.t4 a_4562_772# VDD.t68 sky130_fd_pr__pfet_01v8 ad=0.87 pd=6.58 as=0.435 ps=3.29 w=3 l=0.15
X17 variable_delay_unit_5.forward.t1 variable_delay_unit_5.in.t2 VDD.t96 VDD.t95 sky130_fd_pr__pfet_01v8 ad=0.87 pd=6.58 as=0.87 ps=6.58 w=3 l=0.15
X18 VDD.t57 en_4.t0 a_14288_772# VDD.t56 sky130_fd_pr__pfet_01v8 ad=0.435 pd=3.29 as=0.435 ps=3.29 w=3 l=0.15
X19 VDD.t108 variable_delay_unit_1.tristate_inverter_1.en.t4 a_4562_772# VDD.t107 sky130_fd_pr__pfet_01v8 ad=0.435 pd=3.29 as=0.435 ps=3.29 w=3 l=0.15
X20 VDD.t52 en_3.t0 a_11340_772# VDD.t51 sky130_fd_pr__pfet_01v8 ad=0.87 pd=6.58 as=0.435 ps=3.29 w=3 l=0.15
X21 variable_delay_unit_0.tristate_inverter_1.en.t1 en_0.t1 VDD.t26 VDD.t25 sky130_fd_pr__pfet_01v8 ad=0.87 pd=6.58 as=0.87 ps=6.58 w=3 l=0.15
X22 VSS.t7 en_2.t0 a_7510_352# VSS.t6 sky130_fd_pr__nfet_01v8 ad=0.145 pd=1.29 as=0.145 ps=1.29 w=1 l=0.15
X23 variable_delay_unit_1.out variable_delay_unit_2.in.t5 a_4562_352# VSS.t8 sky130_fd_pr__nfet_01v8 ad=0.29 pd=2.58 as=0.145 ps=1.29 w=1 l=0.15
X24 out.t2 variable_delay_unit_1.in.t2 a_1614_772# VDD.t60 sky130_fd_pr__pfet_01v8 ad=0.87 pd=6.58 as=0.435 ps=3.29 w=3 l=0.15
X25 variable_delay_unit_5.forward.t0 variable_delay_unit_5.in.t3 VSS.t3 VSS.t2 sky130_fd_pr__nfet_01v8 ad=0.29 pd=2.58 as=0.29 ps=2.58 w=1 l=0.15
X26 VSS.t89 variable_delay_unit_4.tristate_inverter_1.en.t2 a_14288_352# VSS.t88 sky130_fd_pr__nfet_01v8 ad=0.145 pd=1.29 as=0.145 ps=1.29 w=1 l=0.15
X27 VSS.t30 en_1.t2 a_4562_352# VSS.t29 sky130_fd_pr__nfet_01v8 ad=0.145 pd=1.29 as=0.145 ps=1.29 w=1 l=0.15
X28 variable_delay_unit_0.tristate_inverter_1.en.t0 en_0.t2 VSS.t104 VSS.t103 sky130_fd_pr__nfet_01v8 ad=0.29 pd=2.58 as=0.29 ps=2.58 w=1 l=0.15
X29 VSS.t40 variable_delay_unit_3.tristate_inverter_1.en.t2 a_11340_352# VSS.t39 sky130_fd_pr__nfet_01v8 ad=0.29 pd=2.58 as=0.145 ps=1.29 w=1 l=0.15
X30 variable_delay_unit_5.in.t1 variable_delay_unit_4.in.t2 VDD.t110 VDD.t109 sky130_fd_pr__pfet_01v8 ad=0.87 pd=6.58 as=0.87 ps=6.58 w=3 l=0.15
X31 VDD.t18 variable_delay_unit_4.tristate_inverter_1.en.t3 a_13406_772# VDD.t17 sky130_fd_pr__pfet_01v8 ad=0.435 pd=3.29 as=0.435 ps=3.29 w=3 l=0.15
X32 variable_delay_unit_3.out variable_delay_unit_4.in.t3 a_10458_772# VDD.t111 sky130_fd_pr__pfet_01v8 ad=0.87 pd=6.58 as=0.435 ps=3.29 w=3 l=0.15
X33 out.t3 variable_delay_unit_1.in.t3 a_1614_352# VSS.t14 sky130_fd_pr__nfet_01v8 ad=0.29 pd=2.58 as=0.145 ps=1.29 w=1 l=0.15
X34 VDD.t20 en_2.t1 a_8392_772# VDD.t19 sky130_fd_pr__pfet_01v8 ad=0.87 pd=6.58 as=0.435 ps=3.29 w=3 l=0.15
X35 variable_delay_unit_5.in.t0 variable_delay_unit_4.in.t4 VSS.t32 VSS.t31 sky130_fd_pr__nfet_01v8 ad=0.29 pd=2.58 as=0.29 ps=2.58 w=1 l=0.15
X36 VSS.t53 en_4.t1 a_13406_352# VSS.t52 sky130_fd_pr__nfet_01v8 ad=0.145 pd=1.29 as=0.145 ps=1.29 w=1 l=0.15
X37 variable_delay_unit_3.out variable_delay_unit_4.in.t5 a_10458_352# VSS.t102 sky130_fd_pr__nfet_01v8 ad=0.29 pd=2.58 as=0.145 ps=1.29 w=1 l=0.15
X38 a_2496_772# variable_delay_unit_1.out out.t1 VDD.t67 sky130_fd_pr__pfet_01v8 ad=0.435 pd=3.29 as=0.87 ps=6.58 w=3 l=0.15
X39 VDD.t77 VDD.t75 a_17236_772# VDD.t76 sky130_fd_pr__pfet_01v8 ad=0.87 pd=6.58 as=0.435 ps=3.29 w=3 l=0.15
X40 VDD.t66 variable_delay_unit_3.tristate_inverter_1.en.t3 a_10458_772# VDD.t65 sky130_fd_pr__pfet_01v8 ad=0.435 pd=3.29 as=0.435 ps=3.29 w=3 l=0.15
X41 VSS.t69 variable_delay_unit_2.tristate_inverter_1.en.t4 a_8392_352# VSS.t68 sky130_fd_pr__nfet_01v8 ad=0.29 pd=2.58 as=0.145 ps=1.29 w=1 l=0.15
X42 VSS.t83 variable_delay_unit_5.tristate_inverter_1.en.t4 a_17236_352# VSS.t82 sky130_fd_pr__nfet_01v8 ad=0.29 pd=2.58 as=0.145 ps=1.29 w=1 l=0.15
X43 variable_delay_unit_2.out variable_delay_unit_3.in.t4 a_7510_772# VDD.t0 sky130_fd_pr__pfet_01v8 ad=0.87 pd=6.58 as=0.435 ps=3.29 w=3 l=0.15
X44 a_2496_352# variable_delay_unit_1.out out.t0 VSS.t60 sky130_fd_pr__nfet_01v8 ad=0.145 pd=1.29 as=0.29 ps=2.58 w=1 l=0.15
X45 VSS.t55 en_3.t1 a_10458_352# VSS.t54 sky130_fd_pr__nfet_01v8 ad=0.145 pd=1.29 as=0.145 ps=1.29 w=1 l=0.15
X46 VDD.t30 en_4.t2 a_14288_772# VDD.t29 sky130_fd_pr__pfet_01v8 ad=0.87 pd=6.58 as=0.435 ps=3.29 w=3 l=0.15
X47 a_1614_772# variable_delay_unit_0.tristate_inverter_1.en.t3 VDD.t6 VDD.t5 sky130_fd_pr__pfet_01v8 ad=0.435 pd=3.29 as=0.87 ps=6.58 w=3 l=0.15
X48 variable_delay_unit_2.out variable_delay_unit_3.in.t5 a_7510_352# VSS.t61 sky130_fd_pr__nfet_01v8 ad=0.29 pd=2.58 as=0.145 ps=1.29 w=1 l=0.15
X49 VSS.t99 variable_delay_unit_4.tristate_inverter_1.en.t4 a_14288_352# VSS.t98 sky130_fd_pr__nfet_01v8 ad=0.29 pd=2.58 as=0.145 ps=1.29 w=1 l=0.15
X50 a_1614_352# en_0.t3 VSS.t10 VSS.t9 sky130_fd_pr__nfet_01v8 ad=0.145 pd=1.29 as=0.29 ps=2.58 w=1 l=0.15
X51 variable_delay_unit_5.out variable_delay_unit_5.forward.t2 a_16354_772# VDD.t31 sky130_fd_pr__pfet_01v8 ad=0.87 pd=6.58 as=0.435 ps=3.29 w=3 l=0.15
X52 a_5444_772# en_1.t3 VDD.t14 VDD.t13 sky130_fd_pr__pfet_01v8 ad=0.435 pd=3.29 as=0.435 ps=3.29 w=3 l=0.15
X53 a_8392_772# variable_delay_unit_3.out variable_delay_unit_2.out VDD.t104 sky130_fd_pr__pfet_01v8 ad=0.435 pd=3.29 as=0.87 ps=6.58 w=3 l=0.15
X54 VDD.t84 variable_delay_unit_5.tristate_inverter_1.en.t5 a_16354_772# VDD.t83 sky130_fd_pr__pfet_01v8 ad=0.435 pd=3.29 as=0.435 ps=3.29 w=3 l=0.15
X55 variable_delay_unit_4.out variable_delay_unit_5.in.t4 a_13406_772# VDD.t55 sky130_fd_pr__pfet_01v8 ad=0.87 pd=6.58 as=0.435 ps=3.29 w=3 l=0.15
X56 variable_delay_unit_1.tristate_inverter_1.en.t1 en_1.t4 VDD.t12 VDD.t11 sky130_fd_pr__pfet_01v8 ad=0.87 pd=6.58 as=0.87 ps=6.58 w=3 l=0.15
X57 variable_delay_unit_5.out variable_delay_unit_5.forward.t3 a_16354_352# VSS.t51 sky130_fd_pr__nfet_01v8 ad=0.29 pd=2.58 as=0.145 ps=1.29 w=1 l=0.15
X58 a_8392_352# variable_delay_unit_3.out variable_delay_unit_2.out VSS.t95 sky130_fd_pr__nfet_01v8 ad=0.145 pd=1.29 as=0.29 ps=2.58 w=1 l=0.15
X59 VSS.t77 VDD.t113 a_16354_352# VSS.t76 sky130_fd_pr__nfet_01v8 ad=0.145 pd=1.29 as=0.145 ps=1.29 w=1 l=0.15
X60 a_5444_352# variable_delay_unit_1.tristate_inverter_1.en.t5 VSS.t46 VSS.t45 sky130_fd_pr__nfet_01v8 ad=0.145 pd=1.29 as=0.145 ps=1.29 w=1 l=0.15
X61 variable_delay_unit_4.out variable_delay_unit_5.in.t5 a_13406_352# VSS.t13 sky130_fd_pr__nfet_01v8 ad=0.29 pd=2.58 as=0.145 ps=1.29 w=1 l=0.15
X62 a_5444_772# variable_delay_unit_2.out variable_delay_unit_1.out VDD.t106 sky130_fd_pr__pfet_01v8 ad=0.435 pd=3.29 as=0.87 ps=6.58 w=3 l=0.15
X63 variable_delay_unit_1.tristate_inverter_1.en.t0 en_1.t5 VSS.t26 VSS.t25 sky130_fd_pr__nfet_01v8 ad=0.29 pd=2.58 as=0.29 ps=2.58 w=1 l=0.15
X64 a_2496_772# en_0.t4 VDD.t28 VDD.t27 sky130_fd_pr__pfet_01v8 ad=0.435 pd=3.29 as=0.435 ps=3.29 w=3 l=0.15
X65 a_7510_772# variable_delay_unit_2.tristate_inverter_1.en.t5 VDD.t92 VDD.t91 sky130_fd_pr__pfet_01v8 ad=0.435 pd=3.29 as=0.87 ps=6.58 w=3 l=0.15
X66 a_5444_352# variable_delay_unit_2.out variable_delay_unit_1.out VSS.t101 sky130_fd_pr__nfet_01v8 ad=0.145 pd=1.29 as=0.29 ps=2.58 w=1 l=0.15
X67 a_2496_352# variable_delay_unit_0.tristate_inverter_1.en.t4 VSS.t63 VSS.t62 sky130_fd_pr__nfet_01v8 ad=0.145 pd=1.29 as=0.145 ps=1.29 w=1 l=0.15
X68 a_7510_352# en_2.t2 VSS.t5 VSS.t4 sky130_fd_pr__nfet_01v8 ad=0.145 pd=1.29 as=0.29 ps=2.58 w=1 l=0.15
X69 a_4562_772# variable_delay_unit_1.tristate_inverter_1.en.t6 VDD.t46 VDD.t45 sky130_fd_pr__pfet_01v8 ad=0.435 pd=3.29 as=0.87 ps=6.58 w=3 l=0.15
X70 a_14288_772# variable_delay_unit_5.out variable_delay_unit_4.out VDD.t103 sky130_fd_pr__pfet_01v8 ad=0.435 pd=3.29 as=0.87 ps=6.58 w=3 l=0.15
X71 a_11340_772# en_3.t2 VDD.t10 VDD.t9 sky130_fd_pr__pfet_01v8 ad=0.435 pd=3.29 as=0.435 ps=3.29 w=3 l=0.15
X72 a_1614_772# variable_delay_unit_0.tristate_inverter_1.en.t5 VDD.t100 VDD.t99 sky130_fd_pr__pfet_01v8 ad=0.435 pd=3.29 as=0.435 ps=3.29 w=3 l=0.15
X73 variable_delay_unit_3.tristate_inverter_1.en.t1 en_3.t3 VDD.t59 VDD.t58 sky130_fd_pr__pfet_01v8 ad=0.87 pd=6.58 as=0.87 ps=6.58 w=3 l=0.15
X74 a_11340_772# variable_delay_unit_4.out variable_delay_unit_3.out VDD.t105 sky130_fd_pr__pfet_01v8 ad=0.435 pd=3.29 as=0.87 ps=6.58 w=3 l=0.15
X75 a_14288_352# variable_delay_unit_5.out variable_delay_unit_4.out VSS.t92 sky130_fd_pr__nfet_01v8 ad=0.145 pd=1.29 as=0.29 ps=2.58 w=1 l=0.15
X76 a_4562_352# en_1.t6 VSS.t28 VSS.t27 sky130_fd_pr__nfet_01v8 ad=0.145 pd=1.29 as=0.29 ps=2.58 w=1 l=0.15
X77 a_11340_352# variable_delay_unit_3.tristate_inverter_1.en.t4 VSS.t59 VSS.t58 sky130_fd_pr__nfet_01v8 ad=0.145 pd=1.29 as=0.145 ps=1.29 w=1 l=0.15
X78 variable_delay_unit_3.tristate_inverter_1.en.t0 en_3.t4 VSS.t44 VSS.t43 sky130_fd_pr__nfet_01v8 ad=0.29 pd=2.58 as=0.29 ps=2.58 w=1 l=0.15
X79 a_1614_352# en_0.t5 VSS.t108 VSS.t107 sky130_fd_pr__nfet_01v8 ad=0.145 pd=1.29 as=0.145 ps=1.29 w=1 l=0.15
X80 variable_delay_unit_1.in.t0 in.t0 VDD.t90 VDD.t89 sky130_fd_pr__pfet_01v8 ad=0.87 pd=6.58 as=0.87 ps=6.58 w=3 l=0.15
X81 a_11340_352# variable_delay_unit_4.out variable_delay_unit_3.out VSS.t100 sky130_fd_pr__nfet_01v8 ad=0.145 pd=1.29 as=0.29 ps=2.58 w=1 l=0.15
X82 a_13406_772# variable_delay_unit_4.tristate_inverter_1.en.t5 VDD.t8 VDD.t7 sky130_fd_pr__pfet_01v8 ad=0.435 pd=3.29 as=0.87 ps=6.58 w=3 l=0.15
X83 variable_delay_unit_2.tristate_inverter_1.en.t0 en_2.t3 VDD.t33 VDD.t32 sky130_fd_pr__pfet_01v8 ad=0.87 pd=6.58 as=0.87 ps=6.58 w=3 l=0.15
X84 a_8392_772# en_2.t4 VDD.t42 VDD.t41 sky130_fd_pr__pfet_01v8 ad=0.435 pd=3.29 as=0.435 ps=3.29 w=3 l=0.15
X85 variable_delay_unit_1.in.t1 in.t1 VSS.t106 VSS.t105 sky130_fd_pr__nfet_01v8 ad=0.29 pd=2.58 as=0.29 ps=2.58 w=1 l=0.15
X86 a_13406_352# en_4.t3 VSS.t20 VSS.t19 sky130_fd_pr__nfet_01v8 ad=0.145 pd=1.29 as=0.29 ps=2.58 w=1 l=0.15
X87 variable_delay_unit_2.tristate_inverter_1.en.t1 en_2.t5 VSS.t87 VSS.t86 sky130_fd_pr__nfet_01v8 ad=0.29 pd=2.58 as=0.29 ps=2.58 w=1 l=0.15
X88 a_17236_772# VDD.t72 VDD.t74 VDD.t73 sky130_fd_pr__pfet_01v8 ad=0.435 pd=3.29 as=0.435 ps=3.29 w=3 l=0.15
X89 a_8392_352# variable_delay_unit_2.tristate_inverter_1.en.t6 VSS.t67 VSS.t66 sky130_fd_pr__nfet_01v8 ad=0.145 pd=1.29 as=0.145 ps=1.29 w=1 l=0.15
X90 a_10458_772# variable_delay_unit_3.tristate_inverter_1.en.t5 VDD.t98 VDD.t97 sky130_fd_pr__pfet_01v8 ad=0.435 pd=3.29 as=0.87 ps=6.58 w=3 l=0.15
X91 variable_delay_unit_5.tristate_inverter_1.en.t1 VDD.t69 VDD.t71 VDD.t70 sky130_fd_pr__pfet_01v8 ad=0.87 pd=6.58 as=0.87 ps=6.58 w=3 l=0.15
X92 a_17236_352# variable_delay_unit_5.tristate_inverter_1.en.t6 VSS.t81 VSS.t80 sky130_fd_pr__nfet_01v8 ad=0.145 pd=1.29 as=0.145 ps=1.29 w=1 l=0.15
X93 a_7510_772# variable_delay_unit_2.tristate_inverter_1.en.t7 VDD.t38 VDD.t37 sky130_fd_pr__pfet_01v8 ad=0.435 pd=3.29 as=0.435 ps=3.29 w=3 l=0.15
X94 a_10458_352# en_3.t5 VSS.t42 VSS.t41 sky130_fd_pr__nfet_01v8 ad=0.145 pd=1.29 as=0.29 ps=2.58 w=1 l=0.15
X95 variable_delay_unit_5.tristate_inverter_1.en.t0 VDD.t114 VSS.t75 VSS.t74 sky130_fd_pr__nfet_01v8 ad=0.29 pd=2.58 as=0.29 ps=2.58 w=1 l=0.15
X96 a_17236_772# VSS.t109 variable_delay_unit_5.out VDD.t36 sky130_fd_pr__pfet_01v8 ad=0.435 pd=3.29 as=0.87 ps=6.58 w=3 l=0.15
X97 a_14288_772# en_4.t4 VDD.t44 VDD.t43 sky130_fd_pr__pfet_01v8 ad=0.435 pd=3.29 as=0.435 ps=3.29 w=3 l=0.15
X98 a_7510_352# en_2.t6 VSS.t22 VSS.t21 sky130_fd_pr__nfet_01v8 ad=0.145 pd=1.29 as=0.145 ps=1.29 w=1 l=0.15
X99 variable_delay_unit_4.tristate_inverter_1.en.t1 en_4.t5 VDD.t2 VDD.t1 sky130_fd_pr__pfet_01v8 ad=0.87 pd=6.58 as=0.87 ps=6.58 w=3 l=0.15
X100 a_4562_772# variable_delay_unit_1.tristate_inverter_1.en.t7 VDD.t22 VDD.t21 sky130_fd_pr__pfet_01v8 ad=0.435 pd=3.29 as=0.435 ps=3.29 w=3 l=0.15
X101 a_17236_352# VSS.t15 variable_delay_unit_5.out VSS.t16 sky130_fd_pr__nfet_01v8 ad=0.145 pd=1.29 as=0.29 ps=2.58 w=1 l=0.15
X102 a_14288_352# variable_delay_unit_4.tristate_inverter_1.en.t6 VSS.t57 VSS.t56 sky130_fd_pr__nfet_01v8 ad=0.145 pd=1.29 as=0.145 ps=1.29 w=1 l=0.15
X103 variable_delay_unit_4.tristate_inverter_1.en.t0 en_4.t6 VSS.t65 VSS.t64 sky130_fd_pr__nfet_01v8 ad=0.29 pd=2.58 as=0.29 ps=2.58 w=1 l=0.15
X104 a_16354_772# variable_delay_unit_5.tristate_inverter_1.en.t7 VDD.t82 VDD.t81 sky130_fd_pr__pfet_01v8 ad=0.435 pd=3.29 as=0.87 ps=6.58 w=3 l=0.15
X105 a_13406_772# variable_delay_unit_4.tristate_inverter_1.en.t7 VDD.t62 VDD.t61 sky130_fd_pr__pfet_01v8 ad=0.435 pd=3.29 as=0.435 ps=3.29 w=3 l=0.15
X106 a_4562_352# en_1.t7 VSS.t24 VSS.t23 sky130_fd_pr__nfet_01v8 ad=0.145 pd=1.29 as=0.145 ps=1.29 w=1 l=0.15
X107 a_16354_352# VDD.t115 VSS.t73 VSS.t72 sky130_fd_pr__nfet_01v8 ad=0.145 pd=1.29 as=0.29 ps=2.58 w=1 l=0.15
X108 a_13406_352# en_4.t7 VSS.t12 VSS.t11 sky130_fd_pr__nfet_01v8 ad=0.145 pd=1.29 as=0.145 ps=1.29 w=1 l=0.15
X109 VDD.t35 en_0.t6 a_2496_772# VDD.t34 sky130_fd_pr__pfet_01v8 ad=0.435 pd=3.29 as=0.435 ps=3.29 w=3 l=0.15
X110 variable_delay_unit_2.in.t0 variable_delay_unit_1.in.t4 VDD.t102 VDD.t101 sky130_fd_pr__pfet_01v8 ad=0.87 pd=6.58 as=0.87 ps=6.58 w=3 l=0.15
X111 a_10458_772# variable_delay_unit_3.tristate_inverter_1.en.t6 VDD.t64 VDD.t63 sky130_fd_pr__pfet_01v8 ad=0.435 pd=3.29 as=0.435 ps=3.29 w=3 l=0.15
X112 variable_delay_unit_2.in.t1 variable_delay_unit_1.in.t5 VSS.t94 VSS.t93 sky130_fd_pr__nfet_01v8 ad=0.29 pd=2.58 as=0.29 ps=2.58 w=1 l=0.15
X113 VSS.t97 variable_delay_unit_0.tristate_inverter_1.en.t6 a_2496_352# VSS.t96 sky130_fd_pr__nfet_01v8 ad=0.145 pd=1.29 as=0.145 ps=1.29 w=1 l=0.15
X114 a_10458_352# en_3.t6 VSS.t38 VSS.t37 sky130_fd_pr__nfet_01v8 ad=0.145 pd=1.29 as=0.145 ps=1.29 w=1 l=0.15
X115 VDD.t48 variable_delay_unit_0.tristate_inverter_1.en.t7 a_1614_772# VDD.t47 sky130_fd_pr__pfet_01v8 ad=0.435 pd=3.29 as=0.435 ps=3.29 w=3 l=0.15
X116 VDD.t16 en_3.t7 a_11340_772# VDD.t15 sky130_fd_pr__pfet_01v8 ad=0.435 pd=3.29 as=0.435 ps=3.29 w=3 l=0.15
X117 VSS.t34 en_0.t7 a_1614_352# VSS.t33 sky130_fd_pr__nfet_01v8 ad=0.145 pd=1.29 as=0.145 ps=1.29 w=1 l=0.15
X118 VSS.t91 variable_delay_unit_3.tristate_inverter_1.en.t7 a_11340_352# VSS.t90 sky130_fd_pr__nfet_01v8 ad=0.145 pd=1.29 as=0.145 ps=1.29 w=1 l=0.15
X119 VDD.t88 en_2.t7 a_8392_772# VDD.t87 sky130_fd_pr__pfet_01v8 ad=0.435 pd=3.29 as=0.435 ps=3.29 w=3 l=0.15
R0 variable_delay_unit_5.tristate_inverter_1.en.n3 variable_delay_unit_5.tristate_inverter_1.en.t7 628.097
R1 variable_delay_unit_5.tristate_inverter_1.en.n4 variable_delay_unit_5.tristate_inverter_1.en.t2 622.766
R2 variable_delay_unit_5.tristate_inverter_1.en.n3 variable_delay_unit_5.tristate_inverter_1.en.t5 523.774
R3 variable_delay_unit_5.tristate_inverter_1.en.n0 variable_delay_unit_5.tristate_inverter_1.en.t3 304.647
R4 variable_delay_unit_5.tristate_inverter_1.en.n0 variable_delay_unit_5.tristate_inverter_1.en.t4 304.647
R5 variable_delay_unit_5.tristate_inverter_1.en.n0 variable_delay_unit_5.tristate_inverter_1.en.t6 202.44
R6 variable_delay_unit_5.tristate_inverter_1.en variable_delay_unit_5.tristate_inverter_1.en.n0 168.969
R7 variable_delay_unit_5.tristate_inverter_1.en variable_delay_unit_5.tristate_inverter_1.en.n4 166.147
R8 variable_delay_unit_5.tristate_inverter_1.en.n1 variable_delay_unit_5.tristate_inverter_1.en.t1 84.7557
R9 variable_delay_unit_5.tristate_inverter_1.en.n1 variable_delay_unit_5.tristate_inverter_1.en.t0 84.1197
R10 variable_delay_unit_5.tristate_inverter_1.en.n2 variable_delay_unit_5.tristate_inverter_1.en.n1 12.6535
R11 variable_delay_unit_5.tristate_inverter_1.en.n2 variable_delay_unit_5.tristate_inverter_1.en 5.58443
R12 variable_delay_unit_5.tristate_inverter_1.en variable_delay_unit_5.tristate_inverter_1.en.n2 4.59003
R13 variable_delay_unit_5.tristate_inverter_1.en.n4 variable_delay_unit_5.tristate_inverter_1.en.n3 1.09595
R14 VDD.n298 VDD.n264 1689.71
R15 VDD.n269 VDD.n264 1689.71
R16 VDD.n262 VDD.n261 1689.71
R17 VDD.n301 VDD.n261 1689.71
R18 VDD.n238 VDD.n13 1689.71
R19 VDD.n238 VDD.n14 1689.71
R20 VDD.n20 VDD.n15 1689.71
R21 VDD.n234 VDD.n15 1689.71
R22 VDD.n210 VDD.n35 1689.71
R23 VDD.n210 VDD.n36 1689.71
R24 VDD.n42 VDD.n37 1689.71
R25 VDD.n206 VDD.n37 1689.71
R26 VDD.n182 VDD.n57 1689.71
R27 VDD.n182 VDD.n58 1689.71
R28 VDD.n64 VDD.n59 1689.71
R29 VDD.n178 VDD.n59 1689.71
R30 VDD.n154 VDD.n79 1689.71
R31 VDD.n154 VDD.n80 1689.71
R32 VDD.n86 VDD.n81 1689.71
R33 VDD.n150 VDD.n81 1689.71
R34 VDD.n118 VDD.n101 1689.71
R35 VDD.n118 VDD.n102 1689.71
R36 VDD.n108 VDD.n103 1689.71
R37 VDD.n114 VDD.n103 1689.71
R38 VDD.n132 VDD.n91 1307.92
R39 VDD.n128 VDD.n92 1307.92
R40 VDD.n168 VDD.n69 1307.92
R41 VDD.n164 VDD.n70 1307.92
R42 VDD.n196 VDD.n47 1307.92
R43 VDD.n192 VDD.n48 1307.92
R44 VDD.n224 VDD.n25 1307.92
R45 VDD.n220 VDD.n26 1307.92
R46 VDD.n252 VDD.n3 1307.92
R47 VDD.n248 VDD.n4 1307.92
R48 VDD.n281 VDD.n277 1307.92
R49 VDD.n274 VDD.n273 1307.92
R50 VDD.n138 VDD.t75 628.097
R51 VDD.n139 VDD.t78 622.766
R52 VDD.n142 VDD.t69 543.053
R53 VDD.n138 VDD.t72 523.774
R54 VDD.n300 VDD.n299 332.803
R55 VDD.n236 VDD.n235 332.803
R56 VDD.n208 VDD.n207 332.803
R57 VDD.n180 VDD.n179 332.803
R58 VDD.n152 VDD.n151 332.803
R59 VDD.n116 VDD.n115 332.803
R60 VDD.n137 VDD.t115 304.647
R61 VDD.n137 VDD.t112 304.647
R62 VDD.n142 VDD.t114 221.72
R63 VDD.n143 VDD.n142 219.526
R64 VDD.n137 VDD.t113 202.44
R65 VDD.n297 VDD.n265 180.236
R66 VDD.n270 VDD.n265 180.236
R67 VDD.n303 VDD.n302 180.236
R68 VDD.n303 VDD.n257 180.236
R69 VDD.n239 VDD.n12 180.236
R70 VDD.n239 VDD.n8 180.236
R71 VDD.n233 VDD.n16 180.236
R72 VDD.n21 VDD.n16 180.236
R73 VDD.n211 VDD.n34 180.236
R74 VDD.n211 VDD.n30 180.236
R75 VDD.n205 VDD.n38 180.236
R76 VDD.n43 VDD.n38 180.236
R77 VDD.n183 VDD.n56 180.236
R78 VDD.n183 VDD.n52 180.236
R79 VDD.n177 VDD.n60 180.236
R80 VDD.n65 VDD.n60 180.236
R81 VDD.n155 VDD.n78 180.236
R82 VDD.n155 VDD.n74 180.236
R83 VDD.n149 VDD.n82 180.236
R84 VDD.n87 VDD.n82 180.236
R85 VDD.n119 VDD.n100 180.236
R86 VDD.n119 VDD.n96 180.236
R87 VDD.n113 VDD.n104 180.236
R88 VDD.n109 VDD.n104 180.236
R89 VDD.n131 VDD.n88 175.123
R90 VDD.n95 VDD.n94 175.123
R91 VDD.n167 VDD.n66 175.123
R92 VDD.n73 VDD.n72 175.123
R93 VDD.n195 VDD.n44 175.123
R94 VDD.n51 VDD.n50 175.123
R95 VDD.n223 VDD.n22 175.123
R96 VDD.n29 VDD.n28 175.123
R97 VDD.n251 VDD.n0 175.123
R98 VDD.n7 VDD.n6 175.123
R99 VDD.n284 VDD.n283 175.123
R100 VDD.n279 VDD.n271 175.123
R101 VDD VDD.n137 168.969
R102 VDD VDD.n139 166.147
R103 VDD.t49 VDD.n262 163.724
R104 VDD.n269 VDD.t5 163.724
R105 VDD.n20 VDD.t53 163.724
R106 VDD.t45 VDD.n14 163.724
R107 VDD.n42 VDD.t19 163.724
R108 VDD.t91 VDD.n36 163.724
R109 VDD.n64 VDD.t51 163.724
R110 VDD.t97 VDD.n58 163.724
R111 VDD.n86 VDD.t29 163.724
R112 VDD.t7 VDD.n80 163.724
R113 VDD.n108 VDD.t76 163.724
R114 VDD.t81 VDD.n102 163.724
R115 VDD.n129 VDD.t95 160.923
R116 VDD.t70 VDD.n130 160.923
R117 VDD.n165 VDD.t109 160.923
R118 VDD.t1 VDD.n166 160.923
R119 VDD.n193 VDD.t3 160.923
R120 VDD.t58 VDD.n194 160.923
R121 VDD.n221 VDD.t39 160.923
R122 VDD.t32 VDD.n222 160.923
R123 VDD.n249 VDD.t101 160.923
R124 VDD.t11 VDD.n250 160.923
R125 VDD.n280 VDD.t89 160.923
R126 VDD.t25 VDD.n282 160.923
R127 VDD.n300 VDD.t67 145.224
R128 VDD.n299 VDD.t60 145.224
R129 VDD.n235 VDD.t106 145.224
R130 VDD.t68 VDD.n236 145.224
R131 VDD.n207 VDD.t104 145.224
R132 VDD.t0 VDD.n208 145.224
R133 VDD.n179 VDD.t105 145.224
R134 VDD.t111 VDD.n180 145.224
R135 VDD.n151 VDD.t103 145.224
R136 VDD.t55 VDD.n152 145.224
R137 VDD.n115 VDD.t36 145.224
R138 VDD.t31 VDD.n116 145.224
R139 VDD.n133 VDD.n90 139.512
R140 VDD.n133 VDD.n88 139.512
R141 VDD.n127 VDD.n93 139.512
R142 VDD.n95 VDD.n93 139.512
R143 VDD.n169 VDD.n68 139.512
R144 VDD.n169 VDD.n66 139.512
R145 VDD.n163 VDD.n71 139.512
R146 VDD.n73 VDD.n71 139.512
R147 VDD.n197 VDD.n46 139.512
R148 VDD.n197 VDD.n44 139.512
R149 VDD.n191 VDD.n49 139.512
R150 VDD.n51 VDD.n49 139.512
R151 VDD.n225 VDD.n24 139.512
R152 VDD.n225 VDD.n22 139.512
R153 VDD.n219 VDD.n27 139.512
R154 VDD.n29 VDD.n27 139.512
R155 VDD.n253 VDD.n2 139.512
R156 VDD.n253 VDD.n0 139.512
R157 VDD.n247 VDD.n5 139.512
R158 VDD.n7 VDD.n5 139.512
R159 VDD.n285 VDD.n275 139.512
R160 VDD.n285 VDD.n284 139.512
R161 VDD.n290 VDD.n289 139.512
R162 VDD.n290 VDD.n271 139.512
R163 VDD.n130 VDD.n129 119.861
R164 VDD.n166 VDD.n165 119.861
R165 VDD.n194 VDD.n193 119.861
R166 VDD.n222 VDD.n221 119.861
R167 VDD.n250 VDD.n249 119.861
R168 VDD.n282 VDD.n280 119.861
R169 VDD.t27 VDD.t49 88.7478
R170 VDD.t67 VDD.t34 88.7478
R171 VDD.t99 VDD.t60 88.7478
R172 VDD.t5 VDD.t47 88.7478
R173 VDD.t53 VDD.t13 88.7478
R174 VDD.t23 VDD.t106 88.7478
R175 VDD.t21 VDD.t68 88.7478
R176 VDD.t107 VDD.t45 88.7478
R177 VDD.t19 VDD.t41 88.7478
R178 VDD.t87 VDD.t104 88.7478
R179 VDD.t37 VDD.t0 88.7478
R180 VDD.t93 VDD.t91 88.7478
R181 VDD.t51 VDD.t9 88.7478
R182 VDD.t15 VDD.t105 88.7478
R183 VDD.t63 VDD.t111 88.7478
R184 VDD.t65 VDD.t97 88.7478
R185 VDD.t29 VDD.t43 88.7478
R186 VDD.t56 VDD.t103 88.7478
R187 VDD.t61 VDD.t55 88.7478
R188 VDD.t17 VDD.t7 88.7478
R189 VDD.t76 VDD.t73 88.7478
R190 VDD.t79 VDD.t36 88.7478
R191 VDD.t85 VDD.t31 88.7478
R192 VDD.t83 VDD.t81 88.7478
R193 VDD.n135 VDD.t71 84.7934
R194 VDD.n125 VDD.t96 84.7934
R195 VDD.n171 VDD.t2 84.7934
R196 VDD.n161 VDD.t110 84.7934
R197 VDD.n199 VDD.t59 84.7934
R198 VDD.n189 VDD.t4 84.7934
R199 VDD.n227 VDD.t33 84.7934
R200 VDD.n217 VDD.t40 84.7934
R201 VDD.n255 VDD.t12 84.7934
R202 VDD.n245 VDD.t102 84.7934
R203 VDD.n276 VDD.t26 84.7934
R204 VDD.n272 VDD.t90 84.7934
R205 VDD.n267 VDD.n266 84.7744
R206 VDD.n259 VDD.n258 84.7744
R207 VDD.n10 VDD.n9 84.7744
R208 VDD.n18 VDD.n17 84.7744
R209 VDD.n32 VDD.n31 84.7744
R210 VDD.n40 VDD.n39 84.7744
R211 VDD.n54 VDD.n53 84.7744
R212 VDD.n62 VDD.n61 84.7744
R213 VDD.n76 VDD.n75 84.7744
R214 VDD.n84 VDD.n83 84.7744
R215 VDD.n98 VDD.n97 84.7744
R216 VDD.n106 VDD.n105 84.7744
R217 VDD.n267 VDD.t6 83.8097
R218 VDD.n259 VDD.t50 83.8097
R219 VDD.n10 VDD.t46 83.8097
R220 VDD.n18 VDD.t54 83.8097
R221 VDD.n32 VDD.t92 83.8097
R222 VDD.n40 VDD.t20 83.8097
R223 VDD.n54 VDD.t98 83.8097
R224 VDD.n62 VDD.t52 83.8097
R225 VDD.n76 VDD.t8 83.8097
R226 VDD.n84 VDD.t30 83.8097
R227 VDD.n98 VDD.t82 83.8097
R228 VDD.n106 VDD.t77 83.8097
R229 VDD.n133 VDD.n132 46.2505
R230 VDD.n93 VDD.n92 46.2505
R231 VDD.n169 VDD.n168 46.2505
R232 VDD.n71 VDD.n70 46.2505
R233 VDD.n197 VDD.n196 46.2505
R234 VDD.n49 VDD.n48 46.2505
R235 VDD.n225 VDD.n224 46.2505
R236 VDD.n27 VDD.n26 46.2505
R237 VDD.n253 VDD.n252 46.2505
R238 VDD.n5 VDD.n4 46.2505
R239 VDD.n285 VDD.n277 46.2505
R240 VDD.n290 VDD.n273 46.2505
R241 VDD.n263 VDD.t27 44.3742
R242 VDD.t34 VDD.n263 44.3742
R243 VDD.n268 VDD.t99 44.3742
R244 VDD.t47 VDD.n268 44.3742
R245 VDD.t13 VDD.n19 44.3742
R246 VDD.n19 VDD.t23 44.3742
R247 VDD.n237 VDD.t21 44.3742
R248 VDD.n237 VDD.t107 44.3742
R249 VDD.t41 VDD.n41 44.3742
R250 VDD.n41 VDD.t87 44.3742
R251 VDD.n209 VDD.t37 44.3742
R252 VDD.n209 VDD.t93 44.3742
R253 VDD.t9 VDD.n63 44.3742
R254 VDD.n63 VDD.t15 44.3742
R255 VDD.n181 VDD.t63 44.3742
R256 VDD.n181 VDD.t65 44.3742
R257 VDD.t43 VDD.n85 44.3742
R258 VDD.n85 VDD.t56 44.3742
R259 VDD.n153 VDD.t61 44.3742
R260 VDD.n153 VDD.t17 44.3742
R261 VDD.t73 VDD.n107 44.3742
R262 VDD.n107 VDD.t79 44.3742
R263 VDD.n117 VDD.t85 44.3742
R264 VDD.n117 VDD.t83 44.3742
R265 VDD.n132 VDD.n131 39.3924
R266 VDD.n94 VDD.n92 39.3924
R267 VDD.n168 VDD.n167 39.3924
R268 VDD.n72 VDD.n70 39.3924
R269 VDD.n196 VDD.n195 39.3924
R270 VDD.n50 VDD.n48 39.3924
R271 VDD.n224 VDD.n223 39.3924
R272 VDD.n28 VDD.n26 39.3924
R273 VDD.n252 VDD.n251 39.3924
R274 VDD.n6 VDD.n4 39.3924
R275 VDD.n283 VDD.n277 39.3924
R276 VDD.n279 VDD.n273 39.3924
R277 VDD.n265 VDD.n264 23.1255
R278 VDD.n268 VDD.n264 23.1255
R279 VDD.n303 VDD.n261 23.1255
R280 VDD.n263 VDD.n261 23.1255
R281 VDD.n239 VDD.n238 23.1255
R282 VDD.n238 VDD.n237 23.1255
R283 VDD.n16 VDD.n15 23.1255
R284 VDD.n19 VDD.n15 23.1255
R285 VDD.n211 VDD.n210 23.1255
R286 VDD.n210 VDD.n209 23.1255
R287 VDD.n38 VDD.n37 23.1255
R288 VDD.n41 VDD.n37 23.1255
R289 VDD.n183 VDD.n182 23.1255
R290 VDD.n182 VDD.n181 23.1255
R291 VDD.n60 VDD.n59 23.1255
R292 VDD.n63 VDD.n59 23.1255
R293 VDD.n155 VDD.n154 23.1255
R294 VDD.n154 VDD.n153 23.1255
R295 VDD.n82 VDD.n81 23.1255
R296 VDD.n85 VDD.n81 23.1255
R297 VDD.n119 VDD.n118 23.1255
R298 VDD.n118 VDD.n117 23.1255
R299 VDD.n104 VDD.n103 23.1255
R300 VDD.n107 VDD.n103 23.1255
R301 VDD.n91 VDD.n90 20.5561
R302 VDD.n130 VDD.n91 20.5561
R303 VDD.n128 VDD.n127 20.5561
R304 VDD.n129 VDD.n128 20.5561
R305 VDD.n69 VDD.n68 20.5561
R306 VDD.n166 VDD.n69 20.5561
R307 VDD.n164 VDD.n163 20.5561
R308 VDD.n165 VDD.n164 20.5561
R309 VDD.n47 VDD.n46 20.5561
R310 VDD.n194 VDD.n47 20.5561
R311 VDD.n192 VDD.n191 20.5561
R312 VDD.n193 VDD.n192 20.5561
R313 VDD.n25 VDD.n24 20.5561
R314 VDD.n222 VDD.n25 20.5561
R315 VDD.n220 VDD.n219 20.5561
R316 VDD.n221 VDD.n220 20.5561
R317 VDD.n3 VDD.n2 20.5561
R318 VDD.n250 VDD.n3 20.5561
R319 VDD.n248 VDD.n247 20.5561
R320 VDD.n249 VDD.n248 20.5561
R321 VDD.n281 VDD.n275 20.5561
R322 VDD.n282 VDD.n281 20.5561
R323 VDD.n289 VDD.n274 20.5561
R324 VDD.n280 VDD.n274 20.5561
R325 VDD.n270 VDD.n269 18.5005
R326 VDD.n298 VDD.n297 18.5005
R327 VDD.n299 VDD.n298 18.5005
R328 VDD.n302 VDD.n301 18.5005
R329 VDD.n301 VDD.n300 18.5005
R330 VDD.n262 VDD.n257 18.5005
R331 VDD.n14 VDD.n8 18.5005
R332 VDD.n13 VDD.n12 18.5005
R333 VDD.n236 VDD.n13 18.5005
R334 VDD.n234 VDD.n233 18.5005
R335 VDD.n235 VDD.n234 18.5005
R336 VDD.n21 VDD.n20 18.5005
R337 VDD.n36 VDD.n30 18.5005
R338 VDD.n35 VDD.n34 18.5005
R339 VDD.n208 VDD.n35 18.5005
R340 VDD.n206 VDD.n205 18.5005
R341 VDD.n207 VDD.n206 18.5005
R342 VDD.n43 VDD.n42 18.5005
R343 VDD.n58 VDD.n52 18.5005
R344 VDD.n57 VDD.n56 18.5005
R345 VDD.n180 VDD.n57 18.5005
R346 VDD.n178 VDD.n177 18.5005
R347 VDD.n179 VDD.n178 18.5005
R348 VDD.n65 VDD.n64 18.5005
R349 VDD.n80 VDD.n74 18.5005
R350 VDD.n79 VDD.n78 18.5005
R351 VDD.n152 VDD.n79 18.5005
R352 VDD.n150 VDD.n149 18.5005
R353 VDD.n151 VDD.n150 18.5005
R354 VDD.n87 VDD.n86 18.5005
R355 VDD.n102 VDD.n96 18.5005
R356 VDD.n101 VDD.n100 18.5005
R357 VDD.n116 VDD.n101 18.5005
R358 VDD.n114 VDD.n113 18.5005
R359 VDD.n115 VDD.n114 18.5005
R360 VDD.n109 VDD.n108 18.5005
R361 VDD.n266 VDD.t100 9.52217
R362 VDD.n266 VDD.t48 9.52217
R363 VDD.n258 VDD.t28 9.52217
R364 VDD.n258 VDD.t35 9.52217
R365 VDD.n9 VDD.t22 9.52217
R366 VDD.n9 VDD.t108 9.52217
R367 VDD.n17 VDD.t14 9.52217
R368 VDD.n17 VDD.t24 9.52217
R369 VDD.n31 VDD.t38 9.52217
R370 VDD.n31 VDD.t94 9.52217
R371 VDD.n39 VDD.t42 9.52217
R372 VDD.n39 VDD.t88 9.52217
R373 VDD.n53 VDD.t64 9.52217
R374 VDD.n53 VDD.t66 9.52217
R375 VDD.n61 VDD.t10 9.52217
R376 VDD.n61 VDD.t16 9.52217
R377 VDD.n75 VDD.t62 9.52217
R378 VDD.n75 VDD.t18 9.52217
R379 VDD.n83 VDD.t44 9.52217
R380 VDD.n83 VDD.t57 9.52217
R381 VDD.n97 VDD.t86 9.52217
R382 VDD.n97 VDD.t84 9.52217
R383 VDD.n105 VDD.t74 9.52217
R384 VDD.n105 VDD.t80 9.52217
R385 VDD.n94 VDD.t95 5.4667
R386 VDD.n131 VDD.t70 5.4667
R387 VDD.n72 VDD.t109 5.4667
R388 VDD.n167 VDD.t1 5.4667
R389 VDD.n50 VDD.t3 5.4667
R390 VDD.n195 VDD.t58 5.4667
R391 VDD.n28 VDD.t39 5.4667
R392 VDD.n223 VDD.t32 5.4667
R393 VDD.n6 VDD.t101 5.4667
R394 VDD.n251 VDD.t11 5.4667
R395 VDD.t89 VDD.n279 5.4667
R396 VDD.n283 VDD.t25 5.4667
R397 VDD.n141 VDD.n140 3.26479
R398 VDD.n124 VDD.n93 2.3255
R399 VDD.n134 VDD.n133 2.3255
R400 VDD.n160 VDD.n71 2.3255
R401 VDD.n170 VDD.n169 2.3255
R402 VDD.n188 VDD.n49 2.3255
R403 VDD.n198 VDD.n197 2.3255
R404 VDD.n216 VDD.n27 2.3255
R405 VDD.n226 VDD.n225 2.3255
R406 VDD.n244 VDD.n5 2.3255
R407 VDD.n254 VDD.n253 2.3255
R408 VDD.n291 VDD.n290 2.3255
R409 VDD.n286 VDD.n285 2.3255
R410 VDD.n144 VDD.n143 2.2505
R411 VDD.n127 VDD.n126 2.04321
R412 VDD.n136 VDD.n88 2.04321
R413 VDD.n90 VDD.n89 2.04321
R414 VDD.n123 VDD.n95 2.04321
R415 VDD.n163 VDD.n162 2.04321
R416 VDD.n172 VDD.n66 2.04321
R417 VDD.n68 VDD.n67 2.04321
R418 VDD.n159 VDD.n73 2.04321
R419 VDD.n191 VDD.n190 2.04321
R420 VDD.n200 VDD.n44 2.04321
R421 VDD.n46 VDD.n45 2.04321
R422 VDD.n187 VDD.n51 2.04321
R423 VDD.n219 VDD.n218 2.04321
R424 VDD.n228 VDD.n22 2.04321
R425 VDD.n24 VDD.n23 2.04321
R426 VDD.n215 VDD.n29 2.04321