* NGSPICE file created from variable_delay_parax.ext - technology: sky130A

.subckt variable_delay_parax in en_1 en_6 out en_2 en_3 en_5 en_7 en_0 en_4 VSS VDD
X0 a_20184_772# variable_delay_unit_7.out variable_delay_unit_6.out VDD.t105 sky130_fd_pr__pfet_01v8 ad=0.435 pd=3.29 as=0.87 ps=6.58 w=3 l=0.15
X1 a_16354_772# variable_delay_unit_5.tristate_inverter_1.en.t2 VDD.t100 VDD.t99 sky130_fd_pr__pfet_01v8 ad=0.435 pd=3.29 as=0.435 ps=3.29 w=3 l=0.15
X2 VSS.t5 variable_delay_unit_8.tristate_inverter_1.en.t2 a_26080_352# VSS.t4 sky130_fd_pr__nfet_01v8 ad=0.29 pd=2.58 as=0.145 ps=1.29 w=1 l=0.15
X3 a_19302_352# en_6.t0 VSS.t158 VSS.t157 sky130_fd_pr__nfet_01v8 ad=0.145 pd=1.29 as=0.145 ps=1.29 w=1 l=0.15
X4 VDD.t58 en_1.t0 a_5444_772# VDD.t57 sky130_fd_pr__pfet_01v8 ad=0.87 pd=6.58 as=0.435 ps=3.29 w=3 l=0.15
X5 variable_delay_unit_4.in.t1 variable_delay_unit_3.in.t2 VDD.t143 VDD.t142 sky130_fd_pr__pfet_01v8 ad=0.87 pd=6.58 as=0.87 ps=6.58 w=3 l=0.15
X6 VSS.t9 variable_delay_unit_2.tristate_inverter_1.en.t2 a_8392_352# VSS.t8 sky130_fd_pr__nfet_01v8 ad=0.145 pd=1.29 as=0.145 ps=1.29 w=1 l=0.15
X7 variable_delay_unit_8.out variable_delay_unit_8.forward.t2 a_25198_772# VDD.t129 sky130_fd_pr__pfet_01v8 ad=0.87 pd=6.58 as=0.435 ps=3.29 w=3 l=0.15
X8 a_20184_352# variable_delay_unit_7.out variable_delay_unit_6.out VSS.t105 sky130_fd_pr__nfet_01v8 ad=0.145 pd=1.29 as=0.29 ps=2.58 w=1 l=0.15
X9 a_16354_352# en_5.t0 VSS.t80 VSS.t79 sky130_fd_pr__nfet_01v8 ad=0.145 pd=1.29 as=0.145 ps=1.29 w=1 l=0.15
X10 VDD.t54 en_1.t1 a_5444_772# VDD.t53 sky130_fd_pr__pfet_01v8 ad=0.435 pd=3.29 as=0.435 ps=3.29 w=3 l=0.15
X11 variable_delay_unit_3.in.t0 variable_delay_unit_2.in.t2 VDD.t43 VDD.t42 sky130_fd_pr__pfet_01v8 ad=0.87 pd=6.58 as=0.87 ps=6.58 w=3 l=0.15
X12 VDD.t131 en_0.t0 a_2496_772# VDD.t130 sky130_fd_pr__pfet_01v8 ad=0.87 pd=6.58 as=0.435 ps=3.29 w=3 l=0.15
X13 VDD.t56 en_5.t1 a_17236_772# VDD.t55 sky130_fd_pr__pfet_01v8 ad=0.435 pd=3.29 as=0.435 ps=3.29 w=3 l=0.15
X14 variable_delay_unit_4.in.t0 variable_delay_unit_3.in.t3 VSS.t66 VSS.t65 sky130_fd_pr__nfet_01v8 ad=0.29 pd=2.58 as=0.29 ps=2.58 w=1 l=0.15
X15 VSS.t132 variable_delay_unit_1.tristate_inverter_1.en.t2 a_5444_352# VSS.t131 sky130_fd_pr__nfet_01v8 ad=0.29 pd=2.58 as=0.145 ps=1.29 w=1 l=0.15
X16 variable_delay_unit_8.out variable_delay_unit_8.forward.t3 a_25198_352# VSS.t153 sky130_fd_pr__nfet_01v8 ad=0.29 pd=2.58 as=0.145 ps=1.29 w=1 l=0.15
X17 VSS.t122 variable_delay_unit_1.tristate_inverter_1.en.t3 a_5444_352# VSS.t121 sky130_fd_pr__nfet_01v8 ad=0.145 pd=1.29 as=0.145 ps=1.29 w=1 l=0.15
X18 variable_delay_unit_3.in.t1 variable_delay_unit_2.in.t3 VSS.t113 VSS.t112 sky130_fd_pr__nfet_01v8 ad=0.29 pd=2.58 as=0.29 ps=2.58 w=1 l=0.15
X19 VSS.t38 variable_delay_unit_0.tristate_inverter_1.en.t2 a_2496_352# VSS.t37 sky130_fd_pr__nfet_01v8 ad=0.29 pd=2.58 as=0.145 ps=1.29 w=1 l=0.15
X20 VDD.t102 variable_delay_unit_2.tristate_inverter_1.en.t3 a_7510_772# VDD.t101 sky130_fd_pr__pfet_01v8 ad=0.435 pd=3.29 as=0.435 ps=3.29 w=3 l=0.15
X21 VSS.t94 variable_delay_unit_5.tristate_inverter_1.en.t3 a_17236_352# VSS.t93 sky130_fd_pr__nfet_01v8 ad=0.145 pd=1.29 as=0.145 ps=1.29 w=1 l=0.15
X22 variable_delay_unit_1.out variable_delay_unit_2.in.t4 a_4562_772# VDD.t146 sky130_fd_pr__pfet_01v8 ad=0.87 pd=6.58 as=0.435 ps=3.29 w=3 l=0.15
X23 VDD.t21 en_4.t0 a_14288_772# VDD.t20 sky130_fd_pr__pfet_01v8 ad=0.435 pd=3.29 as=0.435 ps=3.29 w=3 l=0.15
X24 a_26080_772# VSS.t163 variable_delay_unit_8.out VDD.t34 sky130_fd_pr__pfet_01v8 ad=0.435 pd=3.29 as=0.87 ps=6.58 w=3 l=0.15
X25 variable_delay_unit_6.in.t1 variable_delay_unit_5.in.t2 VDD.t26 VDD.t25 sky130_fd_pr__pfet_01v8 ad=0.87 pd=6.58 as=0.87 ps=6.58 w=3 l=0.15
X26 VDD.t157 variable_delay_unit_1.tristate_inverter_1.en.t4 a_4562_772# VDD.t156 sky130_fd_pr__pfet_01v8 ad=0.435 pd=3.29 as=0.435 ps=3.29 w=3 l=0.15
X27 VDD.t66 en_3.t0 a_11340_772# VDD.t65 sky130_fd_pr__pfet_01v8 ad=0.87 pd=6.58 as=0.435 ps=3.29 w=3 l=0.15
X28 variable_delay_unit_0.tristate_inverter_1.en.t1 en_0.t1 VDD.t89 VDD.t88 sky130_fd_pr__pfet_01v8 ad=0.87 pd=6.58 as=0.87 ps=6.58 w=3 l=0.15
X29 variable_delay_unit_1.out variable_delay_unit_2.in.t5 a_4562_352# VSS.t29 sky130_fd_pr__nfet_01v8 ad=0.29 pd=2.58 as=0.145 ps=1.29 w=1 l=0.15
X30 VSS.t150 en_2.t0 a_7510_352# VSS.t149 sky130_fd_pr__nfet_01v8 ad=0.145 pd=1.29 as=0.145 ps=1.29 w=1 l=0.15
X31 variable_delay_unit_7.tristate_inverter_1.en.t1 en_7.t0 VDD.t39 VDD.t38 sky130_fd_pr__pfet_01v8 ad=0.87 pd=6.58 as=0.87 ps=6.58 w=3 l=0.15
X32 a_26080_352# VSS.t54 variable_delay_unit_8.out VSS.t55 sky130_fd_pr__nfet_01v8 ad=0.145 pd=1.29 as=0.29 ps=2.58 w=1 l=0.15
X33 out.t0 variable_delay_unit_1.in.t2 a_1614_772# VDD.t9 sky130_fd_pr__pfet_01v8 ad=0.87 pd=6.58 as=0.435 ps=3.29 w=3 l=0.15
X34 VSS.t45 en_1.t2 a_4562_352# VSS.t44 sky130_fd_pr__nfet_01v8 ad=0.145 pd=1.29 as=0.145 ps=1.29 w=1 l=0.15
X35 a_23132_772# en_7.t1 VDD.t113 VDD.t112 sky130_fd_pr__pfet_01v8 ad=0.435 pd=3.29 as=0.435 ps=3.29 w=3 l=0.15
X36 variable_delay_unit_6.in.t0 variable_delay_unit_5.in.t3 VSS.t23 VSS.t22 sky130_fd_pr__nfet_01v8 ad=0.29 pd=2.58 as=0.29 ps=2.58 w=1 l=0.15
X37 VSS.t130 variable_delay_unit_4.tristate_inverter_1.en.t2 a_14288_352# VSS.t129 sky130_fd_pr__nfet_01v8 ad=0.145 pd=1.29 as=0.145 ps=1.29 w=1 l=0.15
X38 variable_delay_unit_0.tristate_inverter_1.en.t0 en_0.t2 VSS.t33 VSS.t32 sky130_fd_pr__nfet_01v8 ad=0.29 pd=2.58 as=0.29 ps=2.58 w=1 l=0.15
X39 VSS.t86 variable_delay_unit_3.tristate_inverter_1.en.t2 a_11340_352# VSS.t85 sky130_fd_pr__nfet_01v8 ad=0.29 pd=2.58 as=0.145 ps=1.29 w=1 l=0.15
X40 variable_delay_unit_7.tristate_inverter_1.en.t0 en_7.t2 VSS.t119 VSS.t118 sky130_fd_pr__nfet_01v8 ad=0.29 pd=2.58 as=0.29 ps=2.58 w=1 l=0.15
X41 a_23132_772# variable_delay_unit_8.out variable_delay_unit_7.out VDD.t50 sky130_fd_pr__pfet_01v8 ad=0.435 pd=3.29 as=0.87 ps=6.58 w=3 l=0.15
X42 variable_delay_unit_5.in.t1 variable_delay_unit_4.in.t2 VDD.t60 VDD.t59 sky130_fd_pr__pfet_01v8 ad=0.87 pd=6.58 as=0.87 ps=6.58 w=3 l=0.15
X43 a_20184_772# en_6.t1 VDD.t28 VDD.t27 sky130_fd_pr__pfet_01v8 ad=0.435 pd=3.29 as=0.435 ps=3.29 w=3 l=0.15
X44 VDD.t82 variable_delay_unit_4.tristate_inverter_1.en.t3 a_13406_772# VDD.t81 sky130_fd_pr__pfet_01v8 ad=0.435 pd=3.29 as=0.435 ps=3.29 w=3 l=0.15
X45 variable_delay_unit_3.out variable_delay_unit_4.in.t3 a_10458_772# VDD.t144 sky130_fd_pr__pfet_01v8 ad=0.87 pd=6.58 as=0.435 ps=3.29 w=3 l=0.15
X46 a_23132_352# variable_delay_unit_7.tristate_inverter_1.en.t2 VSS.t101 VSS.t100 sky130_fd_pr__nfet_01v8 ad=0.145 pd=1.29 as=0.145 ps=1.29 w=1 l=0.15
X47 out.t1 variable_delay_unit_1.in.t3 a_1614_352# VSS.t34 sky130_fd_pr__nfet_01v8 ad=0.29 pd=2.58 as=0.145 ps=1.29 w=1 l=0.15
X48 VDD.t137 en_2.t1 a_8392_772# VDD.t136 sky130_fd_pr__pfet_01v8 ad=0.87 pd=6.58 as=0.435 ps=3.29 w=3 l=0.15
X49 a_23132_352# variable_delay_unit_8.out variable_delay_unit_7.out VSS.t56 sky130_fd_pr__nfet_01v8 ad=0.145 pd=1.29 as=0.29 ps=2.58 w=1 l=0.15
X50 a_25198_772# variable_delay_unit_8.tristate_inverter_1.en.t3 VDD.t122 VDD.t121 sky130_fd_pr__pfet_01v8 ad=0.435 pd=3.29 as=0.87 ps=6.58 w=3 l=0.15
X51 a_20184_352# variable_delay_unit_6.tristate_inverter_1.en.t2 VSS.t148 VSS.t147 sky130_fd_pr__nfet_01v8 ad=0.145 pd=1.29 as=0.145 ps=1.29 w=1 l=0.15
X52 variable_delay_unit_5.in.t0 variable_delay_unit_4.in.t4 VSS.t48 VSS.t47 sky130_fd_pr__nfet_01v8 ad=0.29 pd=2.58 as=0.29 ps=2.58 w=1 l=0.15
X53 a_22250_772# variable_delay_unit_7.tristate_inverter_1.en.t3 VDD.t95 VDD.t94 sky130_fd_pr__pfet_01v8 ad=0.435 pd=3.29 as=0.435 ps=3.29 w=3 l=0.15
X54 VSS.t20 en_4.t1 a_13406_352# VSS.t19 sky130_fd_pr__nfet_01v8 ad=0.145 pd=1.29 as=0.145 ps=1.29 w=1 l=0.15
X55 variable_delay_unit_3.out variable_delay_unit_4.in.t5 a_10458_352# VSS.t95 sky130_fd_pr__nfet_01v8 ad=0.29 pd=2.58 as=0.145 ps=1.29 w=1 l=0.15
X56 a_2496_772# variable_delay_unit_1.out out.t2 VDD.t151 sky130_fd_pr__pfet_01v8 ad=0.435 pd=3.29 as=0.87 ps=6.58 w=3 l=0.15
X57 VDD.t116 variable_delay_unit_3.tristate_inverter_1.en.t3 a_10458_772# VDD.t115 sky130_fd_pr__pfet_01v8 ad=0.435 pd=3.29 as=0.435 ps=3.29 w=3 l=0.15
X58 a_22250_772# variable_delay_unit_7.tristate_inverter_1.en.t4 VDD.t124 VDD.t123 sky130_fd_pr__pfet_01v8 ad=0.435 pd=3.29 as=0.87 ps=6.58 w=3 l=0.15
X59 VDD.t68 en_5.t2 a_17236_772# VDD.t67 sky130_fd_pr__pfet_01v8 ad=0.87 pd=6.58 as=0.435 ps=3.29 w=3 l=0.15
X60 VSS.t50 variable_delay_unit_2.tristate_inverter_1.en.t4 a_8392_352# VSS.t49 sky130_fd_pr__nfet_01v8 ad=0.29 pd=2.58 as=0.145 ps=1.29 w=1 l=0.15
X61 a_25198_352# VDD.t166 VSS.t78 VSS.t77 sky130_fd_pr__nfet_01v8 ad=0.145 pd=1.29 as=0.29 ps=2.58 w=1 l=0.15
X62 a_22250_352# en_7.t3 VSS.t152 VSS.t151 sky130_fd_pr__nfet_01v8 ad=0.145 pd=1.29 as=0.145 ps=1.29 w=1 l=0.15
X63 a_2496_352# variable_delay_unit_1.out out.t3 VSS.t156 sky130_fd_pr__nfet_01v8 ad=0.145 pd=1.29 as=0.29 ps=2.58 w=1 l=0.15
X64 variable_delay_unit_2.out variable_delay_unit_3.in.t4 a_7510_772# VDD.t83 sky130_fd_pr__pfet_01v8 ad=0.87 pd=6.58 as=0.435 ps=3.29 w=3 l=0.15
X65 a_22250_352# en_7.t4 VSS.t138 VSS.t137 sky130_fd_pr__nfet_01v8 ad=0.145 pd=1.29 as=0.29 ps=2.58 w=1 l=0.15
X66 VSS.t92 variable_delay_unit_5.tristate_inverter_1.en.t4 a_17236_352# VSS.t91 sky130_fd_pr__nfet_01v8 ad=0.29 pd=2.58 as=0.145 ps=1.29 w=1 l=0.15
X67 VSS.t68 en_3.t1 a_10458_352# VSS.t67 sky130_fd_pr__nfet_01v8 ad=0.145 pd=1.29 as=0.145 ps=1.29 w=1 l=0.15
X68 variable_delay_unit_7.in.t1 variable_delay_unit_6.in.t2 VDD.t31 VDD.t30 sky130_fd_pr__pfet_01v8 ad=0.87 pd=6.58 as=0.87 ps=6.58 w=3 l=0.15
X69 VDD.t19 en_4.t2 a_14288_772# VDD.t18 sky130_fd_pr__pfet_01v8 ad=0.87 pd=6.58 as=0.435 ps=3.29 w=3 l=0.15
X70 VDD.t135 variable_delay_unit_6.tristate_inverter_1.en.t3 a_19302_772# VDD.t134 sky130_fd_pr__pfet_01v8 ad=0.435 pd=3.29 as=0.435 ps=3.29 w=3 l=0.15
X71 a_1614_772# variable_delay_unit_0.tristate_inverter_1.en.t3 VDD.t45 VDD.t44 sky130_fd_pr__pfet_01v8 ad=0.435 pd=3.29 as=0.87 ps=6.58 w=3 l=0.15
X72 variable_delay_unit_2.out variable_delay_unit_3.in.t5 a_7510_352# VSS.t46 sky130_fd_pr__nfet_01v8 ad=0.29 pd=2.58 as=0.145 ps=1.29 w=1 l=0.15
X73 variable_delay_unit_8.tristate_inverter_1.en.t1 VDD.t78 VDD.t80 VDD.t79 sky130_fd_pr__pfet_01v8 ad=0.87 pd=6.58 as=0.87 ps=6.58 w=3 l=0.15
X74 a_26080_772# VDD.t75 VDD.t77 VDD.t76 sky130_fd_pr__pfet_01v8 ad=0.435 pd=3.29 as=0.435 ps=3.29 w=3 l=0.15
X75 variable_delay_unit_7.in.t0 variable_delay_unit_6.in.t3 VSS.t28 VSS.t27 sky130_fd_pr__nfet_01v8 ad=0.29 pd=2.58 as=0.29 ps=2.58 w=1 l=0.15
X76 VSS.t82 variable_delay_unit_4.tristate_inverter_1.en.t4 a_14288_352# VSS.t81 sky130_fd_pr__nfet_01v8 ad=0.29 pd=2.58 as=0.145 ps=1.29 w=1 l=0.15
X77 a_1614_352# en_0.t3 VSS.t31 VSS.t30 sky130_fd_pr__nfet_01v8 ad=0.145 pd=1.29 as=0.29 ps=2.58 w=1 l=0.15
X78 VSS.t52 en_6.t2 a_19302_352# VSS.t51 sky130_fd_pr__nfet_01v8 ad=0.145 pd=1.29 as=0.145 ps=1.29 w=1 l=0.15
X79 variable_delay_unit_5.out variable_delay_unit_6.in.t4 a_16354_772# VDD.t29 sky130_fd_pr__pfet_01v8 ad=0.87 pd=6.58 as=0.435 ps=3.29 w=3 l=0.15
X80 variable_delay_unit_8.tristate_inverter_1.en.t0 VDD.t167 VSS.t76 VSS.t75 sky130_fd_pr__nfet_01v8 ad=0.29 pd=2.58 as=0.29 ps=2.58 w=1 l=0.15
X81 a_5444_772# en_1.t3 VDD.t85 VDD.t84 sky130_fd_pr__pfet_01v8 ad=0.435 pd=3.29 as=0.435 ps=3.29 w=3 l=0.15
X82 a_8392_772# variable_delay_unit_3.out variable_delay_unit_2.out VDD.t145 sky130_fd_pr__pfet_01v8 ad=0.435 pd=3.29 as=0.87 ps=6.58 w=3 l=0.15
X83 VDD.t52 variable_delay_unit_5.tristate_inverter_1.en.t5 a_16354_772# VDD.t51 sky130_fd_pr__pfet_01v8 ad=0.435 pd=3.29 as=0.435 ps=3.29 w=3 l=0.15
X84 variable_delay_unit_4.out variable_delay_unit_5.in.t4 a_13406_772# VDD.t24 sky130_fd_pr__pfet_01v8 ad=0.87 pd=6.58 as=0.435 ps=3.29 w=3 l=0.15
X85 a_26080_352# variable_delay_unit_8.tristate_inverter_1.en.t4 VSS.t3 VSS.t2 sky130_fd_pr__nfet_01v8 ad=0.145 pd=1.29 as=0.145 ps=1.29 w=1 l=0.15
X86 variable_delay_unit_1.tristate_inverter_1.en.t1 en_1.t4 VDD.t153 VDD.t152 sky130_fd_pr__pfet_01v8 ad=0.87 pd=6.58 as=0.87 ps=6.58 w=3 l=0.15
X87 variable_delay_unit_5.out variable_delay_unit_6.in.t5 a_16354_352# VSS.t24 sky130_fd_pr__nfet_01v8 ad=0.29 pd=2.58 as=0.145 ps=1.29 w=1 l=0.15
X88 a_8392_352# variable_delay_unit_3.out variable_delay_unit_2.out VSS.t155 sky130_fd_pr__nfet_01v8 ad=0.145 pd=1.29 as=0.29 ps=2.58 w=1 l=0.15
X89 a_5444_352# variable_delay_unit_1.tristate_inverter_1.en.t5 VSS.t117 VSS.t116 sky130_fd_pr__nfet_01v8 ad=0.145 pd=1.29 as=0.145 ps=1.29 w=1 l=0.15
X90 a_25198_772# variable_delay_unit_8.tristate_inverter_1.en.t5 VDD.t11 VDD.t10 sky130_fd_pr__pfet_01v8 ad=0.435 pd=3.29 as=0.435 ps=3.29 w=3 l=0.15
X91 VSS.t13 en_5.t3 a_16354_352# VSS.t12 sky130_fd_pr__nfet_01v8 ad=0.145 pd=1.29 as=0.145 ps=1.29 w=1 l=0.15
X92 variable_delay_unit_4.out variable_delay_unit_5.in.t5 a_13406_352# VSS.t21 sky130_fd_pr__nfet_01v8 ad=0.29 pd=2.58 as=0.145 ps=1.29 w=1 l=0.15
X93 a_5444_772# variable_delay_unit_2.out variable_delay_unit_1.out VDD.t114 sky130_fd_pr__pfet_01v8 ad=0.435 pd=3.29 as=0.87 ps=6.58 w=3 l=0.15
X94 variable_delay_unit_1.tristate_inverter_1.en.t0 en_1.t5 VSS.t64 VSS.t63 sky130_fd_pr__nfet_01v8 ad=0.29 pd=2.58 as=0.29 ps=2.58 w=1 l=0.15
X95 a_2496_772# en_0.t4 VDD.t111 VDD.t110 sky130_fd_pr__pfet_01v8 ad=0.435 pd=3.29 as=0.435 ps=3.29 w=3 l=0.15
X96 a_7510_772# variable_delay_unit_2.tristate_inverter_1.en.t5 VDD.t36 VDD.t35 sky130_fd_pr__pfet_01v8 ad=0.435 pd=3.29 as=0.87 ps=6.58 w=3 l=0.15
X97 a_25198_352# VDD.t168 VSS.t74 VSS.t73 sky130_fd_pr__nfet_01v8 ad=0.145 pd=1.29 as=0.145 ps=1.29 w=1 l=0.15
X98 a_5444_352# variable_delay_unit_2.out variable_delay_unit_1.out VSS.t120 sky130_fd_pr__nfet_01v8 ad=0.145 pd=1.29 as=0.29 ps=2.58 w=1 l=0.15
X99 a_2496_352# variable_delay_unit_0.tristate_inverter_1.en.t4 VSS.t36 VSS.t35 sky130_fd_pr__nfet_01v8 ad=0.145 pd=1.29 as=0.145 ps=1.29 w=1 l=0.15
X100 a_7510_352# en_2.t2 VSS.t146 VSS.t145 sky130_fd_pr__nfet_01v8 ad=0.145 pd=1.29 as=0.29 ps=2.58 w=1 l=0.15
X101 a_4562_772# variable_delay_unit_1.tristate_inverter_1.en.t6 VDD.t49 VDD.t48 sky130_fd_pr__pfet_01v8 ad=0.435 pd=3.29 as=0.87 ps=6.58 w=3 l=0.15
X102 a_11340_772# en_3.t2 VDD.t64 VDD.t63 sky130_fd_pr__pfet_01v8 ad=0.435 pd=3.29 as=0.435 ps=3.29 w=3 l=0.15
X103 a_14288_772# variable_delay_unit_5.out variable_delay_unit_4.out VDD.t6 sky130_fd_pr__pfet_01v8 ad=0.435 pd=3.29 as=0.87 ps=6.58 w=3 l=0.15
X104 VDD.t128 en_7.t5 a_23132_772# VDD.t127 sky130_fd_pr__pfet_01v8 ad=0.435 pd=3.29 as=0.435 ps=3.29 w=3 l=0.15
X105 a_1614_772# variable_delay_unit_0.tristate_inverter_1.en.t5 VDD.t104 VDD.t103 sky130_fd_pr__pfet_01v8 ad=0.435 pd=3.29 as=0.435 ps=3.29 w=3 l=0.15
X106 variable_delay_unit_3.tristate_inverter_1.en.t1 en_3.t3 VDD.t62 VDD.t61 sky130_fd_pr__pfet_01v8 ad=0.87 pd=6.58 as=0.87 ps=6.58 w=3 l=0.15
X107 a_11340_772# variable_delay_unit_4.out variable_delay_unit_3.out VDD.t98 sky130_fd_pr__pfet_01v8 ad=0.435 pd=3.29 as=0.87 ps=6.58 w=3 l=0.15
X108 a_4562_352# en_1.t6 VSS.t58 VSS.t57 sky130_fd_pr__nfet_01v8 ad=0.145 pd=1.29 as=0.29 ps=2.58 w=1 l=0.15
X109 VSS.t134 variable_delay_unit_7.tristate_inverter_1.en.t5 a_23132_352# VSS.t133 sky130_fd_pr__nfet_01v8 ad=0.145 pd=1.29 as=0.145 ps=1.29 w=1 l=0.15
X110 variable_delay_unit_6.out variable_delay_unit_7.in.t2 a_19302_772# VDD.t164 sky130_fd_pr__pfet_01v8 ad=0.87 pd=6.58 as=0.435 ps=3.29 w=3 l=0.15
X111 a_14288_352# variable_delay_unit_5.out variable_delay_unit_4.out VSS.t14 sky130_fd_pr__nfet_01v8 ad=0.145 pd=1.29 as=0.29 ps=2.58 w=1 l=0.15
X112 a_1614_352# en_0.t5 VSS.t107 VSS.t106 sky130_fd_pr__nfet_01v8 ad=0.145 pd=1.29 as=0.145 ps=1.29 w=1 l=0.15
X113 variable_delay_unit_3.tristate_inverter_1.en.t0 en_3.t4 VSS.t144 VSS.t143 sky130_fd_pr__nfet_01v8 ad=0.29 pd=2.58 as=0.29 ps=2.58 w=1 l=0.15
X114 a_11340_352# variable_delay_unit_3.tristate_inverter_1.en.t4 VSS.t128 VSS.t127 sky130_fd_pr__nfet_01v8 ad=0.145 pd=1.29 as=0.145 ps=1.29 w=1 l=0.15
X115 variable_delay_unit_1.in.t0 in.t0 VDD.t5 VDD.t4 sky130_fd_pr__pfet_01v8 ad=0.87 pd=6.58 as=0.87 ps=6.58 w=3 l=0.15
X116 variable_delay_unit_8.in.t1 variable_delay_unit_7.in.t3 VDD.t87 VDD.t86 sky130_fd_pr__pfet_01v8 ad=0.87 pd=6.58 as=0.87 ps=6.58 w=3 l=0.15
X117 VDD.t17 en_6.t3 a_20184_772# VDD.t16 sky130_fd_pr__pfet_01v8 ad=0.435 pd=3.29 as=0.435 ps=3.29 w=3 l=0.15
X118 a_11340_352# variable_delay_unit_4.out variable_delay_unit_3.out VSS.t104 sky130_fd_pr__nfet_01v8 ad=0.145 pd=1.29 as=0.29 ps=2.58 w=1 l=0.15
X119 a_13406_772# variable_delay_unit_4.tristate_inverter_1.en.t5 VDD.t41 VDD.t40 sky130_fd_pr__pfet_01v8 ad=0.435 pd=3.29 as=0.87 ps=6.58 w=3 l=0.15
X120 variable_delay_unit_2.tristate_inverter_1.en.t1 en_2.t3 VDD.t161 VDD.t160 sky130_fd_pr__pfet_01v8 ad=0.87 pd=6.58 as=0.87 ps=6.58 w=3 l=0.15
X121 variable_delay_unit_6.out variable_delay_unit_7.in.t4 a_19302_352# VSS.t154 sky130_fd_pr__nfet_01v8 ad=0.29 pd=2.58 as=0.145 ps=1.29 w=1 l=0.15
X122 a_8392_772# en_2.t4 VDD.t159 VDD.t158 sky130_fd_pr__pfet_01v8 ad=0.435 pd=3.29 as=0.435 ps=3.29 w=3 l=0.15
X123 variable_delay_unit_1.in.t1 in.t1 VSS.t162 VSS.t161 sky130_fd_pr__nfet_01v8 ad=0.29 pd=2.58 as=0.29 ps=2.58 w=1 l=0.15
X124 variable_delay_unit_8.in.t0 variable_delay_unit_7.in.t5 VSS.t99 VSS.t98 sky130_fd_pr__nfet_01v8 ad=0.29 pd=2.58 as=0.29 ps=2.58 w=1 l=0.15
X125 VSS.t26 variable_delay_unit_6.tristate_inverter_1.en.t4 a_20184_352# VSS.t25 sky130_fd_pr__nfet_01v8 ad=0.145 pd=1.29 as=0.145 ps=1.29 w=1 l=0.15
X126 variable_delay_unit_2.tristate_inverter_1.en.t0 en_2.t5 VSS.t160 VSS.t159 sky130_fd_pr__nfet_01v8 ad=0.29 pd=2.58 as=0.29 ps=2.58 w=1 l=0.15
X127 a_13406_352# en_4.t3 VSS.t18 VSS.t17 sky130_fd_pr__nfet_01v8 ad=0.145 pd=1.29 as=0.29 ps=2.58 w=1 l=0.15
X128 a_17236_772# en_5.t4 VDD.t3 VDD.t2 sky130_fd_pr__pfet_01v8 ad=0.435 pd=3.29 as=0.435 ps=3.29 w=3 l=0.15
X129 a_10458_772# variable_delay_unit_3.tristate_inverter_1.en.t5 VDD.t150 VDD.t149 sky130_fd_pr__pfet_01v8 ad=0.435 pd=3.29 as=0.87 ps=6.58 w=3 l=0.15
X130 a_8392_352# variable_delay_unit_2.tristate_inverter_1.en.t6 VSS.t60 VSS.t59 sky130_fd_pr__nfet_01v8 ad=0.145 pd=1.29 as=0.145 ps=1.29 w=1 l=0.15
X131 variable_delay_unit_5.tristate_inverter_1.en.t1 en_5.t5 VDD.t1 VDD.t0 sky130_fd_pr__pfet_01v8 ad=0.87 pd=6.58 as=0.87 ps=6.58 w=3 l=0.15
X132 a_7510_772# variable_delay_unit_2.tristate_inverter_1.en.t7 VDD.t155 VDD.t154 sky130_fd_pr__pfet_01v8 ad=0.435 pd=3.29 as=0.435 ps=3.29 w=3 l=0.15
X133 a_17236_352# variable_delay_unit_5.tristate_inverter_1.en.t6 VSS.t90 VSS.t89 sky130_fd_pr__nfet_01v8 ad=0.145 pd=1.29 as=0.145 ps=1.29 w=1 l=0.15
X134 a_10458_352# en_3.t5 VSS.t142 VSS.t141 sky130_fd_pr__nfet_01v8 ad=0.145 pd=1.29 as=0.29 ps=2.58 w=1 l=0.15
X135 variable_delay_unit_5.tristate_inverter_1.en.t0 en_5.t6 VSS.t11 VSS.t10 sky130_fd_pr__nfet_01v8 ad=0.29 pd=2.58 as=0.29 ps=2.58 w=1 l=0.15
X136 a_17236_772# variable_delay_unit_6.out variable_delay_unit_5.out VDD.t37 sky130_fd_pr__pfet_01v8 ad=0.435 pd=3.29 as=0.87 ps=6.58 w=3 l=0.15
X137 a_14288_772# en_4.t4 VDD.t47 VDD.t46 sky130_fd_pr__pfet_01v8 ad=0.435 pd=3.29 as=0.435 ps=3.29 w=3 l=0.15
X138 a_19302_772# variable_delay_unit_6.tristate_inverter_1.en.t5 VDD.t23 VDD.t22 sky130_fd_pr__pfet_01v8 ad=0.435 pd=3.29 as=0.87 ps=6.58 w=3 l=0.15
X139 a_7510_352# en_2.t6 VSS.t16 VSS.t15 sky130_fd_pr__nfet_01v8 ad=0.145 pd=1.29 as=0.145 ps=1.29 w=1 l=0.15
X140 variable_delay_unit_4.tristate_inverter_1.en.t1 en_4.t5 VDD.t93 VDD.t92 sky130_fd_pr__pfet_01v8 ad=0.87 pd=6.58 as=0.87 ps=6.58 w=3 l=0.15
X141 a_4562_772# variable_delay_unit_1.tristate_inverter_1.en.t7 VDD.t33 VDD.t32 sky130_fd_pr__pfet_01v8 ad=0.435 pd=3.29 as=0.435 ps=3.29 w=3 l=0.15
X142 VDD.t74 VDD.t72 a_26080_772# VDD.t73 sky130_fd_pr__pfet_01v8 ad=0.435 pd=3.29 as=0.435 ps=3.29 w=3 l=0.15
X143 VDD.t126 en_7.t6 a_23132_772# VDD.t125 sky130_fd_pr__pfet_01v8 ad=0.87 pd=6.58 as=0.435 ps=3.29 w=3 l=0.15
X144 a_17236_352# variable_delay_unit_6.out variable_delay_unit_5.out VSS.t53 sky130_fd_pr__nfet_01v8 ad=0.145 pd=1.29 as=0.29 ps=2.58 w=1 l=0.15
X145 a_19302_352# en_6.t4 VSS.t62 VSS.t61 sky130_fd_pr__nfet_01v8 ad=0.145 pd=1.29 as=0.29 ps=2.58 w=1 l=0.15
X146 a_14288_352# variable_delay_unit_4.tristate_inverter_1.en.t6 VSS.t111 VSS.t110 sky130_fd_pr__nfet_01v8 ad=0.145 pd=1.29 as=0.145 ps=1.29 w=1 l=0.15
X147 variable_delay_unit_4.tristate_inverter_1.en.t0 en_4.t6 VSS.t126 VSS.t125 sky130_fd_pr__nfet_01v8 ad=0.29 pd=2.58 as=0.29 ps=2.58 w=1 l=0.15
X148 a_16354_772# variable_delay_unit_5.tristate_inverter_1.en.t7 VDD.t13 VDD.t12 sky130_fd_pr__pfet_01v8 ad=0.435 pd=3.29 as=0.87 ps=6.58 w=3 l=0.15
X149 a_13406_772# variable_delay_unit_4.tristate_inverter_1.en.t7 VDD.t97 VDD.t96 sky130_fd_pr__pfet_01v8 ad=0.435 pd=3.29 as=0.435 ps=3.29 w=3 l=0.15
X150 VSS.t1 variable_delay_unit_8.tristate_inverter_1.en.t6 a_26080_352# VSS.t0 sky130_fd_pr__nfet_01v8 ad=0.145 pd=1.29 as=0.145 ps=1.29 w=1 l=0.15
X151 a_4562_352# en_1.t7 VSS.t7 VSS.t6 sky130_fd_pr__nfet_01v8 ad=0.145 pd=1.29 as=0.145 ps=1.29 w=1 l=0.15
X152 VSS.t109 variable_delay_unit_7.tristate_inverter_1.en.t6 a_23132_352# VSS.t108 sky130_fd_pr__nfet_01v8 ad=0.29 pd=2.58 as=0.145 ps=1.29 w=1 l=0.15
X153 variable_delay_unit_8.forward.t1 variable_delay_unit_8.in.t2 VDD.t163 VDD.t162 sky130_fd_pr__pfet_01v8 ad=0.87 pd=6.58 as=0.87 ps=6.58 w=3 l=0.15
X154 VDD.t15 variable_delay_unit_8.tristate_inverter_1.en.t7 a_25198_772# VDD.t14 sky130_fd_pr__pfet_01v8 ad=0.435 pd=3.29 as=0.435 ps=3.29 w=3 l=0.15
X155 a_16354_352# en_5.t7 VSS.t41 VSS.t40 sky130_fd_pr__nfet_01v8 ad=0.145 pd=1.29 as=0.29 ps=2.58 w=1 l=0.15
X156 VDD.t91 en_6.t5 a_20184_772# VDD.t90 sky130_fd_pr__pfet_01v8 ad=0.87 pd=6.58 as=0.435 ps=3.29 w=3 l=0.15
X157 variable_delay_unit_7.out variable_delay_unit_8.in.t3 a_22250_772# VDD.t165 sky130_fd_pr__pfet_01v8 ad=0.87 pd=6.58 as=0.435 ps=3.29 w=3 l=0.15
X158 a_13406_352# en_4.t7 VSS.t70 VSS.t69 sky130_fd_pr__nfet_01v8 ad=0.145 pd=1.29 as=0.145 ps=1.29 w=1 l=0.15
X159 VDD.t8 en_0.t6 a_2496_772# VDD.t7 sky130_fd_pr__pfet_01v8 ad=0.435 pd=3.29 as=0.435 ps=3.29 w=3 l=0.15
X160 variable_delay_unit_2.in.t1 variable_delay_unit_1.in.t4 VDD.t109 VDD.t108 sky130_fd_pr__pfet_01v8 ad=0.87 pd=6.58 as=0.87 ps=6.58 w=3 l=0.15
X161 a_10458_772# variable_delay_unit_3.tristate_inverter_1.en.t6 VDD.t107 VDD.t106 sky130_fd_pr__pfet_01v8 ad=0.435 pd=3.29 as=0.435 ps=3.29 w=3 l=0.15
X162 variable_delay_unit_8.forward.t0 variable_delay_unit_8.in.t4 VSS.t97 VSS.t96 sky130_fd_pr__nfet_01v8 ad=0.29 pd=2.58 as=0.29 ps=2.58 w=1 l=0.15
X163 VSS.t88 variable_delay_unit_6.tristate_inverter_1.en.t6 a_20184_352# VSS.t87 sky130_fd_pr__nfet_01v8 ad=0.29 pd=2.58 as=0.145 ps=1.29 w=1 l=0.15
X164 variable_delay_unit_6.tristate_inverter_1.en.t1 en_6.t6 VDD.t141 VDD.t140 sky130_fd_pr__pfet_01v8 ad=0.87 pd=6.58 as=0.87 ps=6.58 w=3 l=0.15
X165 VSS.t72 VDD.t169 a_25198_352# VSS.t71 sky130_fd_pr__nfet_01v8 ad=0.145 pd=1.29 as=0.145 ps=1.29 w=1 l=0.15
X166 variable_delay_unit_7.out variable_delay_unit_8.in.t5 a_22250_352# VSS.t39 sky130_fd_pr__nfet_01v8 ad=0.29 pd=2.58 as=0.145 ps=1.29 w=1 l=0.15
X167 variable_delay_unit_2.in.t0 variable_delay_unit_1.in.t5 VSS.t103 VSS.t102 sky130_fd_pr__nfet_01v8 ad=0.29 pd=2.58 as=0.29 ps=2.58 w=1 l=0.15
X168 VSS.t124 variable_delay_unit_0.tristate_inverter_1.en.t6 a_2496_352# VSS.t123 sky130_fd_pr__nfet_01v8 ad=0.145 pd=1.29 as=0.145 ps=1.29 w=1 l=0.15
X169 VDD.t148 variable_delay_unit_7.tristate_inverter_1.en.t7 a_22250_772# VDD.t147 sky130_fd_pr__pfet_01v8 ad=0.435 pd=3.29 as=0.435 ps=3.29 w=3 l=0.15
X170 variable_delay_unit_6.tristate_inverter_1.en.t0 en_6.t7 VSS.t43 VSS.t42 sky130_fd_pr__nfet_01v8 ad=0.29 pd=2.58 as=0.29 ps=2.58 w=1 l=0.15
X171 a_10458_352# en_3.t6 VSS.t140 VSS.t139 sky130_fd_pr__nfet_01v8 ad=0.145 pd=1.29 as=0.145 ps=1.29 w=1 l=0.15
X172 VDD.t120 variable_delay_unit_0.tristate_inverter_1.en.t7 a_1614_772# VDD.t119 sky130_fd_pr__pfet_01v8 ad=0.435 pd=3.29 as=0.435 ps=3.29 w=3 l=0.15
X173 VDD.t133 en_3.t7 a_11340_772# VDD.t132 sky130_fd_pr__pfet_01v8 ad=0.435 pd=3.29 as=0.435 ps=3.29 w=3 l=0.15
X174 VSS.t136 en_7.t7 a_22250_352# VSS.t135 sky130_fd_pr__nfet_01v8 ad=0.145 pd=1.29 as=0.145 ps=1.29 w=1 l=0.15
X175 VDD.t71 VDD.t69 a_26080_772# VDD.t70 sky130_fd_pr__pfet_01v8 ad=0.87 pd=6.58 as=0.435 ps=3.29 w=3 l=0.15
X176 a_19302_772# variable_delay_unit_6.tristate_inverter_1.en.t7 VDD.t118 VDD.t117 sky130_fd_pr__pfet_01v8 ad=0.435 pd=3.29 as=0.435 ps=3.29 w=3 l=0.15
X177 VSS.t115 en_0.t7 a_1614_352# VSS.t114 sky130_fd_pr__nfet_01v8 ad=0.145 pd=1.29 as=0.145 ps=1.29 w=1 l=0.15
X178 VSS.t84 variable_delay_unit_3.tristate_inverter_1.en.t7 a_11340_352# VSS.t83 sky130_fd_pr__nfet_01v8 ad=0.145 pd=1.29 as=0.145 ps=1.29 w=1 l=0.15
X179 VDD.t139 en_2.t7 a_8392_772# VDD.t138 sky130_fd_pr__pfet_01v8 ad=0.435 pd=3.29 as=0.435 ps=3.29 w=3 l=0.15
R0 VDD.n448 VDD.n414 1689.71
R1 VDD.n419 VDD.n414 1689.71
R2 VDD.n412 VDD.n411 1689.71
R3 VDD.n451 VDD.n411 1689.71
R4 VDD.n388 VDD.n13 1689.71
R5 VDD.n388 VDD.n14 1689.71
R6 VDD.n20 VDD.n15 1689.71
R7 VDD.n384 VDD.n15 1689.71
R8 VDD.n360 VDD.n35 1689.71
R9 VDD.n360 VDD.n36 1689.71
R10 VDD.n42 VDD.n37 1689.71
R11 VDD.n356 VDD.n37 1689.71
R12 VDD.n332 VDD.n57 1689.71
R13 VDD.n332 VDD.n58 1689.71
R14 VDD.n64 VDD.n59 1689.71
R15 VDD.n328 VDD.n59 1689.71
R16 VDD.n304 VDD.n79 1689.71
R17 VDD.n304 VDD.n80 1689.71
R18 VDD.n86 VDD.n81 1689.71
R19 VDD.n300 VDD.n81 1689.71
R20 VDD.n276 VDD.n101 1689.71
R21 VDD.n276 VDD.n102 1689.71
R22 VDD.n108 VDD.n103 1689.71
R23 VDD.n272 VDD.n103 1689.71
R24 VDD.n248 VDD.n123 1689.71
R25 VDD.n248 VDD.n124 1689.71
R26 VDD.n130 VDD.n125 1689.71
R27 VDD.n244 VDD.n125 1689.71
R28 VDD.n220 VDD.n145 1689.71
R29 VDD.n220 VDD.n146 1689.71
R30 VDD.n152 VDD.n147 1689.71
R31 VDD.n216 VDD.n147 1689.71
R32 VDD.n184 VDD.n167 1689.71
R33 VDD.n184 VDD.n168 1689.71
R34 VDD.n174 VDD.n169 1689.71
R35 VDD.n180 VDD.n169 1689.71
R36 VDD.n198 VDD.n157 1307.92
R37 VDD.n194 VDD.n158 1307.92
R38 VDD.n234 VDD.n135 1307.92
R39 VDD.n230 VDD.n136 1307.92
R40 VDD.n262 VDD.n113 1307.92
R41 VDD.n258 VDD.n114 1307.92
R42 VDD.n290 VDD.n91 1307.92
R43 VDD.n286 VDD.n92 1307.92
R44 VDD.n318 VDD.n69 1307.92
R45 VDD.n314 VDD.n70 1307.92
R46 VDD.n346 VDD.n47 1307.92
R47 VDD.n342 VDD.n48 1307.92
R48 VDD.n374 VDD.n25 1307.92
R49 VDD.n370 VDD.n26 1307.92
R50 VDD.n402 VDD.n3 1307.92
R51 VDD.n398 VDD.n4 1307.92
R52 VDD.n431 VDD.n427 1307.92
R53 VDD.n424 VDD.n423 1307.92
R54 VDD.n204 VDD.t69 628.097
R55 VDD.n205 VDD.t72 622.766
R56 VDD.n208 VDD.t78 543.053
R57 VDD.n204 VDD.t75 523.774
R58 VDD.n450 VDD.n449 332.803
R59 VDD.n386 VDD.n385 332.803
R60 VDD.n358 VDD.n357 332.803
R61 VDD.n330 VDD.n329 332.803
R62 VDD.n302 VDD.n301 332.803
R63 VDD.n274 VDD.n273 332.803
R64 VDD.n246 VDD.n245 332.803
R65 VDD.n218 VDD.n217 332.803
R66 VDD.n182 VDD.n181 332.803
R67 VDD.n203 VDD.t166 304.647
R68 VDD.n203 VDD.t168 304.647
R69 VDD.n208 VDD.t167 221.72
R70 VDD.n209 VDD.n208 219.48
R71 VDD.n203 VDD.t169 202.44
R72 VDD.n447 VDD.n415 180.236
R73 VDD.n420 VDD.n415 180.236
R74 VDD.n453 VDD.n452 180.236
R75 VDD.n453 VDD.n407 180.236
R76 VDD.n389 VDD.n12 180.236
R77 VDD.n389 VDD.n8 180.236
R78 VDD.n383 VDD.n16 180.236
R79 VDD.n21 VDD.n16 180.236
R80 VDD.n361 VDD.n34 180.236
R81 VDD.n361 VDD.n30 180.236
R82 VDD.n355 VDD.n38 180.236
R83 VDD.n43 VDD.n38 180.236
R84 VDD.n333 VDD.n56 180.236
R85 VDD.n333 VDD.n52 180.236
R86 VDD.n327 VDD.n60 180.236
R87 VDD.n65 VDD.n60 180.236
R88 VDD.n305 VDD.n78 180.236
R89 VDD.n305 VDD.n74 180.236
R90 VDD.n299 VDD.n82 180.236
R91 VDD.n87 VDD.n82 180.236
R92 VDD.n277 VDD.n100 180.236
R93 VDD.n277 VDD.n96 180.236
R94 VDD.n271 VDD.n104 180.236
R95 VDD.n109 VDD.n104 180.236
R96 VDD.n249 VDD.n122 180.236
R97 VDD.n249 VDD.n118 180.236
R98 VDD.n243 VDD.n126 180.236
R99 VDD.n131 VDD.n126 180.236
R100 VDD.n221 VDD.n144 180.236
R101 VDD.n221 VDD.n140 180.236
R102 VDD.n215 VDD.n148 180.236
R103 VDD.n153 VDD.n148 180.236
R104 VDD.n185 VDD.n166 180.236
R105 VDD.n185 VDD.n162 180.236
R106 VDD.n179 VDD.n170 180.236
R107 VDD.n175 VDD.n170 180.236
R108 VDD.n197 VDD.n154 175.123
R109 VDD.n161 VDD.n160 175.123
R110 VDD.n233 VDD.n132 175.123
R111 VDD.n139 VDD.n138 175.123
R112 VDD.n261 VDD.n110 175.123
R113 VDD.n117 VDD.n116 175.123
R114 VDD.n289 VDD.n88 175.123
R115 VDD.n95 VDD.n94 175.123
R116 VDD.n317 VDD.n66 175.123
R117 VDD.n73 VDD.n72 175.123
R118 VDD.n345 VDD.n44 175.123
R119 VDD.n51 VDD.n50 175.123
R120 VDD.n373 VDD.n22 175.123
R121 VDD.n29 VDD.n28 175.123
R122 VDD.n401 VDD.n0 175.123
R123 VDD.n7 VDD.n6 175.123
R124 VDD.n434 VDD.n433 175.123
R125 VDD.n429 VDD.n421 175.123
R126 VDD VDD.n203 168.969
R127 VDD VDD.n205 166.147
R128 VDD.t130 VDD.n412 163.724
R129 VDD.n419 VDD.t44 163.724
R130 VDD.n20 VDD.t57 163.724
R131 VDD.t48 VDD.n14 163.724
R132 VDD.n42 VDD.t136 163.724
R133 VDD.t35 VDD.n36 163.724
R134 VDD.n64 VDD.t65 163.724
R135 VDD.t149 VDD.n58 163.724
R136 VDD.n86 VDD.t18 163.724
R137 VDD.t40 VDD.n80 163.724
R138 VDD.n108 VDD.t67 163.724
R139 VDD.t12 VDD.n102 163.724
R140 VDD.n130 VDD.t90 163.724
R141 VDD.t22 VDD.n124 163.724
R142 VDD.n152 VDD.t125 163.724
R143 VDD.t123 VDD.n146 163.724
R144 VDD.n174 VDD.t70 163.724
R145 VDD.t121 VDD.n168 163.724
R146 VDD.n195 VDD.t162 160.923
R147 VDD.t79 VDD.n196 160.923
R148 VDD.n231 VDD.t86 160.923
R149 VDD.t38 VDD.n232 160.923
R150 VDD.n259 VDD.t30 160.923
R151 VDD.t140 VDD.n260 160.923
R152 VDD.n287 VDD.t25 160.923
R153 VDD.t0 VDD.n288 160.923
R154 VDD.n315 VDD.t59 160.923
R155 VDD.t92 VDD.n316 160.923
R156 VDD.n343 VDD.t142 160.923
R157 VDD.t61 VDD.n344 160.923
R158 VDD.n371 VDD.t42 160.923
R159 VDD.t160 VDD.n372 160.923
R160 VDD.n399 VDD.t108 160.923
R161 VDD.t152 VDD.n400 160.923
R162 VDD.n430 VDD.t4 160.923
R163 VDD.t88 VDD.n432 160.923
R164 VDD.n450 VDD.t151 145.224
R165 VDD.n449 VDD.t9 145.224
R166 VDD.n385 VDD.t114 145.224
R167 VDD.t146 VDD.n386 145.224
R168 VDD.n357 VDD.t145 145.224
R169 VDD.t83 VDD.n358 145.224
R170 VDD.n329 VDD.t98 145.224
R171 VDD.t144 VDD.n330 145.224
R172 VDD.n301 VDD.t6 145.224
R173 VDD.t24 VDD.n302 145.224
R174 VDD.n273 VDD.t37 145.224
R175 VDD.t29 VDD.n274 145.224
R176 VDD.n245 VDD.t105 145.224
R177 VDD.t164 VDD.n246 145.224
R178 VDD.n217 VDD.t50 145.224
R179 VDD.t165 VDD.n218 145.224
R180 VDD.n181 VDD.t34 145.224
R181 VDD.t129 VDD.n182 145.224
R182 VDD.n199 VDD.n156 139.512