* NGSPICE file created from vernier_delay_line_parax.ext - technology: sky130A

.subckt vernier_delay_line_parax term_1 term_2 term_3 term_4 term_5 term_6 term_7
+ stop_strong start_neg start_pos VDD VSS term_0
X0 a_17348_1376# saff_delay_unit_7/saff_2_0.sense_amplifier_0.out1.t4 VDD.t198 VDD.t197 sky130_fd_pr__pfet_01v8 ad=0.87 pd=6.58 as=0.435 ps=3.29 w=3 l=0.15
X1 saff_delay_unit_1/saff_2_0.sense_amplifier_0.out2.t2 saff_delay_unit_1/saff_2_0.sense_amplifier_0.out1.t4 a_3116_2192.t5 VSS.t21 sky130_fd_pr__nfet_01v8 ad=0.87 pd=6.58 as=0.435 ps=3.29 w=3 l=0.15
X2 VSS.t140 stop_strong.t0 a_11980_2192.t10 VSS.t139 sky130_fd_pr__nfet_01v8 ad=0.435 pd=3.29 as=0.435 ps=3.29 w=3 l=0.15
X3 saff_delay_unit_5/delay_unit_2_0.in_1.t3 saff_delay_unit_4/delay_unit_2_0.in_2.t8 VSS.t369 VSS.t368 sky130_fd_pr__nfet_01v8 ad=0.145 pd=1.29 as=0.145 ps=1.29 w=1 l=0.15
X4 a_16632_2192# saff_delay_unit_7/saff_2_0.sense_amplifier_0.out2.t4 saff_delay_unit_7/saff_2_0.sense_amplifier_0.out1.t1 VSS.t103 sky130_fd_pr__nfet_01v8 ad=0.435 pd=3.29 as=0.87 ps=6.58 w=3 l=0.15
X5 saff_delay_unit_3/delay_unit_2_0.in_2.t5 saff_delay_unit_2/delay_unit_2_0.in_1.t8 VDD.t178 VDD.t177 sky130_fd_pr__pfet_01v8 ad=0.87 pd=6.58 as=0.435 ps=3.29 w=3 l=0.15
X6 VSS.t308 start_pos.t2 start_neg.t0 VSS.t307 sky130_fd_pr__nfet_01v8 ad=0.145 pd=1.29 as=0.29 ps=2.58 w=1 l=0.15
X7 saff_delay_unit_2/delay_unit_2_0.in_1.t5 saff_delay_unit_1/delay_unit_2_0.in_2.t8 VSS.t319 VSS.t318 sky130_fd_pr__nfet_01v8 ad=0.29 pd=2.58 as=0.145 ps=1.29 w=1 l=0.15
X8 a_570_2192.t12 saff_delay_unit_1/delay_unit_2_0.in_2.t9 a_834_2192.t5 VSS.t96 sky130_fd_pr__nfet_01v8 ad=0.435 pd=3.29 as=0.435 ps=3.29 w=3 l=0.15
X9 a_16544_2192.t12 saff_delay_unit_7/saff_2_0.d.t8 a_16632_2192# VSS.t305 sky130_fd_pr__nfet_01v8 ad=0.435 pd=3.29 as=0.435 ps=3.29 w=3 l=0.15
X10 a_7804_296# saff_delay_unit_3/saff_2_0.sense_amplifier_0.out1.t4 term_3.t2 VSS.t206 sky130_fd_pr__nfet_01v8 ad=0.145 pd=1.29 as=0.145 ps=1.29 w=1 l=0.15
X11 VDD.t71 saff_delay_unit_6/saff_2_0.sense_amplifier_0.out2.t4 a_14382_160# VDD.t70 sky130_fd_pr__pfet_01v8 ad=0.435 pd=3.29 as=0.87 ps=6.58 w=3 l=0.15
X12 a_14350_2192# saff_delay_unit_7/delay_unit_2_0.in_1.t8 a_14262_2192.t3 VSS.t166 sky130_fd_pr__nfet_01v8 ad=0.435 pd=3.29 as=0.87 ps=6.58 w=3 l=0.15
X13 VSS.t142 stop_strong.t1 a_2852_2192.t8 VSS.t141 sky130_fd_pr__nfet_01v8 ad=0.87 pd=6.58 as=0.435 ps=3.29 w=3 l=0.15
X14 a_570_2192.t11 saff_delay_unit_1/delay_unit_2_0.in_2.t10 a_834_2192.t4 VSS.t317 sky130_fd_pr__nfet_01v8 ad=0.435 pd=3.29 as=0.435 ps=3.29 w=3 l=0.15
X15 VDD.t182 saff_delay_unit_3/saff_2_0.sense_amplifier_0.out2.t4 saff_delay_unit_3/saff_2_0.nq VDD.t181 sky130_fd_pr__pfet_01v8 ad=0.435 pd=3.29 as=0.435 ps=3.29 w=3 l=0.15
X16 term_7.t2 a_16664_160# VSS.t331 VSS.t330 sky130_fd_pr__nfet_01v8 ad=0.145 pd=1.29 as=0.145 ps=1.29 w=1 l=0.15
X17 saff_delay_unit_5/delay_unit_2_0.in_2.t2 saff_delay_unit_4/delay_unit_2_0.in_1.t8 VSS.t144 VSS.t143 sky130_fd_pr__nfet_01v8 ad=0.29 pd=2.58 as=0.145 ps=1.29 w=1 l=0.15
X18 a_3618_296# term_1.t4 VSS.t354 VSS.t353 sky130_fd_pr__nfet_01v8 ad=0.145 pd=1.29 as=0.29 ps=2.58 w=1 l=0.15
X19 VDD.t271 saff_delay_unit_7/saff_2_0.nq a_16932_730# VDD.t270 sky130_fd_pr__pfet_01v8 ad=0.87 pd=6.58 as=0.435 ps=3.29 w=3 l=0.15
X20 saff_delay_unit_4/delay_unit_2_0.in_2.t5 saff_delay_unit_3/delay_unit_2_0.in_1.t8 VDD.t220 VDD.t219 sky130_fd_pr__pfet_01v8 ad=0.435 pd=3.29 as=0.435 ps=3.29 w=3 l=0.15
X21 saff_delay_unit_7/saff_2_0.sense_amplifier_0.out2.t1 saff_delay_unit_7/saff_2_0.sense_amplifier_0.out1.t5 a_16808_2192.t5 VSS.t180 sky130_fd_pr__nfet_01v8 ad=0.87 pd=6.58 as=0.435 ps=3.29 w=3 l=0.15
X22 saff_delay_unit_3/delay_unit_2_0.in_1.t4 saff_delay_unit_2/delay_unit_2_0.in_2.t8 VSS.t19 VSS.t18 sky130_fd_pr__nfet_01v8 ad=0.145 pd=1.29 as=0.145 ps=1.29 w=1 l=0.15
X23 VSS.t316 saff_delay_unit_1/delay_unit_2_0.in_2.t11 saff_delay_unit_1/delay_unit_2_0.in_1.t6 VSS.t315 sky130_fd_pr__nfet_01v8 ad=0.145 pd=1.29 as=0.29 ps=2.58 w=1 l=0.15
X24 a_5398_2192.t4 saff_delay_unit_3/delay_unit_2_0.in_2.t8 a_5134_2192.t0 VSS.t162 sky130_fd_pr__nfet_01v8 ad=0.435 pd=3.29 as=0.435 ps=3.29 w=3 l=0.15
X25 delay_unit_2_0.out_2 saff_delay_unit_7/saff_2_0.d.t9 VDD.t167 VDD.t166 sky130_fd_pr__pfet_01v8 ad=0.87 pd=6.58 as=0.435 ps=3.29 w=3 l=0.15
X26 a_9786_2192# saff_delay_unit_4/saff_2_0.sense_amplifier_0.out2.t4 saff_delay_unit_4/saff_2_0.sense_amplifier_0.out1.t2 VSS.t145 sky130_fd_pr__nfet_01v8 ad=0.435 pd=3.29 as=0.87 ps=6.58 w=3 l=0.15
X27 saff_delay_unit_7/saff_2_0.d.t3 saff_delay_unit_7/delay_unit_2_0.in_2.t8 VSS.t160 VSS.t159 sky130_fd_pr__nfet_01v8 ad=0.29 pd=2.58 as=0.145 ps=1.29 w=1 l=0.15
X28 saff_delay_unit_4/saff_2_0.sense_amplifier_0.out2.t0 saff_delay_unit_4/saff_2_0.sense_amplifier_0.out1.t4 VDD.t119 VDD.t118 sky130_fd_pr__pfet_01v8 ad=0.435 pd=3.29 as=0.87 ps=6.58 w=3 l=0.15
X29 term_5.t1 a_12100_160# VSS.t187 VSS.t186 sky130_fd_pr__nfet_01v8 ad=0.145 pd=1.29 as=0.145 ps=1.29 w=1 l=0.15
X30 VSS.t27 saff_delay_unit_6/delay_unit_2_0.in_2.t8 saff_delay_unit_7/delay_unit_2_0.in_1.t0 VSS.t26 sky130_fd_pr__nfet_01v8 ad=0.145 pd=1.29 as=0.145 ps=1.29 w=1 l=0.15
X31 VSS.t385 stop_strong.t2 a_16544_2192.t8 VSS.t384 sky130_fd_pr__nfet_01v8 ad=0.87 pd=6.58 as=0.435 ps=3.29 w=3 l=0.15
X32 a_658_2192# saff_delay_unit_1/delay_unit_2_0.in_1.t8 a_570_2192.t2 VSS.t114 sky130_fd_pr__nfet_01v8 ad=0.435 pd=3.29 as=0.87 ps=6.58 w=3 l=0.15
X33 a_5938_1376# saff_delay_unit_2/saff_2_0.sense_amplifier_0.out1.t4 VSS.t62 VSS.t61 sky130_fd_pr__nfet_01v8 ad=0.29 pd=2.58 as=0.145 ps=1.29 w=1 l=0.15
X34 a_7804_730# a_7536_160# term_3.t1 VDD.t158 sky130_fd_pr__pfet_01v8 ad=0.435 pd=3.29 as=0.435 ps=3.29 w=3 l=0.15
X35 a_7504_2192# saff_delay_unit_4/delay_unit_2_0.in_1.t9 a_7416_2192.t3 VSS.t298 sky130_fd_pr__nfet_01v8 ad=0.435 pd=3.29 as=0.87 ps=6.58 w=3 l=0.15
X36 delay_unit_2_0.out_1.t5 saff_delay_unit_7/saff_2_0.nd.t8 VDD.t117 VDD.t116 sky130_fd_pr__pfet_01v8 ad=0.435 pd=3.29 as=0.435 ps=3.29 w=3 l=0.15
X37 VSS.t337 saff_delay_unit_6/delay_unit_2_0.in_1.t8 saff_delay_unit_7/delay_unit_2_0.in_2.t7 VSS.t336 sky130_fd_pr__nfet_01v8 ad=0.145 pd=1.29 as=0.145 ps=1.29 w=1 l=0.15
X38 a_17310_296# term_7.t4 VSS.t23 VSS.t22 sky130_fd_pr__nfet_01v8 ad=0.145 pd=1.29 as=0.29 ps=2.58 w=1 l=0.15
X39 VDD.t303 saff_delay_unit_4/saff_2_0.sense_amplifier_0.out2.t5 saff_delay_unit_4/saff_2_0.sense_amplifier_0.out1.t3 VDD.t302 sky130_fd_pr__pfet_01v8 ad=0.87 pd=6.58 as=0.435 ps=3.29 w=3 l=0.15
X40 VDD.t115 saff_delay_unit_7/delay_unit_2_0.in_2.t9 saff_delay_unit_7/delay_unit_2_0.in_1.t4 VDD.t114 sky130_fd_pr__pfet_01v8 ad=0.435 pd=3.29 as=0.87 ps=6.58 w=3 l=0.15
X41 saff_delay_unit_6/delay_unit_2_0.in_2.t3 saff_delay_unit_5/delay_unit_2_0.in_1.t8 VSS.t246 VSS.t245 sky130_fd_pr__nfet_01v8 ad=0.145 pd=1.29 as=0.145 ps=1.29 w=1 l=0.15
X42 a_7504_2192# saff_delay_unit_4/delay_unit_2_0.in_1.t10 a_7416_2192.t2 VSS.t233 sky130_fd_pr__nfet_01v8 ad=0.435 pd=3.29 as=0.435 ps=3.29 w=3 l=0.15
X43 VDD.t202 start_neg.t2 saff_delay_unit_1/delay_unit_2_0.in_1.t5 VDD.t201 sky130_fd_pr__pfet_01v8 ad=0.435 pd=3.29 as=0.435 ps=3.29 w=3 l=0.15
X44 term_7.t1 saff_delay_unit_7/saff_2_0.sense_amplifier_0.out1.t6 VDD.t196 VDD.t195 sky130_fd_pr__pfet_01v8 ad=0.435 pd=3.29 as=0.435 ps=3.29 w=3 l=0.15
X45 VSS.t227 saff_delay_unit_1/saff_2_0.sense_amplifier_0.out2.t4 a_2972_160# VSS.t226 sky130_fd_pr__nfet_01v8 ad=0.145 pd=1.29 as=0.29 ps=2.58 w=1 l=0.15
X46 a_12068_2192# saff_delay_unit_6/delay_unit_2_0.in_1.t9 a_11980_2192.t4 VSS.t174 sky130_fd_pr__nfet_01v8 ad=0.435 pd=3.29 as=0.435 ps=3.29 w=3 l=0.15
X47 a_3618_730# term_1.t5 VDD.t52 VDD.t51 sky130_fd_pr__pfet_01v8 ad=0.435 pd=3.29 as=0.87 ps=6.58 w=3 l=0.15
X48 a_9698_2192.t12 saff_delay_unit_5/delay_unit_2_0.in_2.t8 a_9962_2192.t0 VSS.t133 sky130_fd_pr__nfet_01v8 ad=0.435 pd=3.29 as=0.435 ps=3.29 w=3 l=0.15
X49 saff_delay_unit_7/delay_unit_2_0.in_2.t5 saff_delay_unit_6/delay_unit_2_0.in_1.t10 VDD.t146 VDD.t145 sky130_fd_pr__pfet_01v8 ad=0.87 pd=6.58 as=0.435 ps=3.29 w=3 l=0.15
X50 VSS.t387 stop_strong.t3 a_11980_2192.t9 VSS.t386 sky130_fd_pr__nfet_01v8 ad=0.435 pd=3.29 as=0.435 ps=3.29 w=3 l=0.15
X51 VSS.t25 saff_delay_unit_7/delay_unit_2_0.in_1.t9 saff_delay_unit_7/delay_unit_2_0.in_2.t1 VSS.t24 sky130_fd_pr__nfet_01v8 ad=0.145 pd=1.29 as=0.29 ps=2.58 w=1 l=0.15
X52 saff_delay_unit_6/delay_unit_2_0.in_1.t4 saff_delay_unit_5/delay_unit_2_0.in_2.t9 VSS.t232 VSS.t231 sky130_fd_pr__nfet_01v8 ad=0.29 pd=2.58 as=0.145 ps=1.29 w=1 l=0.15
X53 VDD.t81 saff_delay_unit_1/delay_unit_2_0.in_1.t9 saff_delay_unit_1/delay_unit_2_0.in_2.t1 VDD.t80 sky130_fd_pr__pfet_01v8 ad=0.435 pd=3.29 as=0.87 ps=6.58 w=3 l=0.15
X54 saff_delay_unit_2/saff_2_0.nq saff_delay_unit_2/saff_2_0.sense_amplifier_0.out2.t4 a_5900_296# VSS.t381 sky130_fd_pr__nfet_01v8 ad=0.145 pd=1.29 as=0.145 ps=1.29 w=1 l=0.15
X55 VSS.t74 saff_delay_unit_2/saff_2_0.nq a_5522_296# VSS.t73 sky130_fd_pr__nfet_01v8 ad=0.29 pd=2.58 as=0.145 ps=1.29 w=1 l=0.15
X56 VSS.t295 saff_delay_unit_3/delay_unit_2_0.in_2.t9 saff_delay_unit_4/delay_unit_2_0.in_1.t2 VSS.t294 sky130_fd_pr__nfet_01v8 ad=0.145 pd=1.29 as=0.145 ps=1.29 w=1 l=0.15
X57 VSS.t310 start_pos.t3 saff_delay_unit_1/delay_unit_2_0.in_2.t4 VSS.t309 sky130_fd_pr__nfet_01v8 ad=0.145 pd=1.29 as=0.145 ps=1.29 w=1 l=0.15
X58 term_5.t0 saff_delay_unit_5/saff_2_0.sense_amplifier_0.out1.t4 VDD.t121 VDD.t120 sky130_fd_pr__pfet_01v8 ad=0.435 pd=3.29 as=0.435 ps=3.29 w=3 l=0.15
X59 term_0.t1 a_690_160# VSS.t71 VSS.t70 sky130_fd_pr__nfet_01v8 ad=0.145 pd=1.29 as=0.145 ps=1.29 w=1 l=0.15
X60 saff_delay_unit_6/saff_2_0.sense_amplifier_0.out1.t2 saff_delay_unit_6/saff_2_0.sense_amplifier_0.out2.t5 a_14350_2192# VSS.t118 sky130_fd_pr__nfet_01v8 ad=0.87 pd=6.58 as=0.435 ps=3.29 w=3 l=0.15
X61 VDD.t313 saff_delay_unit_5/delay_unit_2_0.in_2.t10 saff_delay_unit_5/delay_unit_2_0.in_1.t7 VDD.t312 sky130_fd_pr__pfet_01v8 ad=0.435 pd=3.29 as=0.87 ps=6.58 w=3 l=0.15
X62 a_2940_2192# saff_delay_unit_2/delay_unit_2_0.in_1.t9 a_2852_2192.t12 VSS.t221 sky130_fd_pr__nfet_01v8 ad=0.435 pd=3.29 as=0.87 ps=6.58 w=3 l=0.15
X63 VSS.t37 stop_strong.t4 a_2852_2192.t7 VSS.t36 sky130_fd_pr__nfet_01v8 ad=0.435 pd=3.29 as=0.435 ps=3.29 w=3 l=0.15
X64 a_5938_1376# saff_delay_unit_2/saff_2_0.sense_amplifier_0.out1.t5 VDD.t59 VDD.t58 sky130_fd_pr__pfet_01v8 ad=0.87 pd=6.58 as=0.435 ps=3.29 w=3 l=0.15
X65 a_14526_2192.t5 saff_delay_unit_7/delay_unit_2_0.in_2.t10 a_14262_2192.t7 VSS.t178 sky130_fd_pr__nfet_01v8 ad=0.435 pd=3.29 as=0.435 ps=3.29 w=3 l=0.15
X66 a_570_2192.t8 stop_strong.t5 VSS.t39 VSS.t38 sky130_fd_pr__nfet_01v8 ad=0.435 pd=3.29 as=0.435 ps=3.29 w=3 l=0.15
X67 saff_delay_unit_3/delay_unit_2_0.in_2.t2 saff_delay_unit_2/delay_unit_2_0.in_1.t10 VSS.t126 VSS.t125 sky130_fd_pr__nfet_01v8 ad=0.145 pd=1.29 as=0.145 ps=1.29 w=1 l=0.15
X68 a_14650_296# saff_delay_unit_6/saff_2_0.sense_amplifier_0.out1.t4 term_6.t0 VSS.t66 sky130_fd_pr__nfet_01v8 ad=0.145 pd=1.29 as=0.145 ps=1.29 w=1 l=0.15
X69 a_17310_730# term_7.t5 VDD.t19 VDD.t18 sky130_fd_pr__pfet_01v8 ad=0.435 pd=3.29 as=0.87 ps=6.58 w=3 l=0.15
X70 a_11980_2192.t2 saff_delay_unit_6/delay_unit_2_0.in_1.t11 a_12068_2192# VSS.t127 sky130_fd_pr__nfet_01v8 ad=0.435 pd=3.29 as=0.435 ps=3.29 w=3 l=0.15
X71 VDD.t65 saff_delay_unit_4/delay_unit_2_0.in_2.t9 saff_delay_unit_4/delay_unit_2_0.in_1.t7 VDD.t64 sky130_fd_pr__pfet_01v8 ad=0.435 pd=3.29 as=0.87 ps=6.58 w=3 l=0.15
X72 saff_delay_unit_0/saff_2_0.nq saff_delay_unit_0/saff_2_0.sense_amplifier_0.out2.t4 a_1336_296# VSS.t340 sky130_fd_pr__nfet_01v8 ad=0.145 pd=1.29 as=0.145 ps=1.29 w=1 l=0.15
X73 a_14526_2192.t4 saff_delay_unit_7/delay_unit_2_0.in_2.t11 a_14262_2192.t4 VSS.t128 sky130_fd_pr__nfet_01v8 ad=0.435 pd=3.29 as=0.435 ps=3.29 w=3 l=0.15
X74 saff_delay_unit_2/saff_2_0.sense_amplifier_0.out1.t2 stop_strong.t6 VDD.t174 VDD.t173 sky130_fd_pr__pfet_01v8 ad=0.435 pd=3.29 as=0.87 ps=6.58 w=3 l=0.15
X75 saff_delay_unit_7/saff_2_0.nd.t2 saff_delay_unit_7/delay_unit_2_0.in_1.t10 VSS.t389 VSS.t388 sky130_fd_pr__nfet_01v8 ad=0.29 pd=2.58 as=0.145 ps=1.29 w=1 l=0.15
X76 saff_delay_unit_2/saff_2_0.sense_amplifier_0.out2.t2 saff_delay_unit_2/saff_2_0.sense_amplifier_0.out1.t6 a_5398_2192.t5 VSS.t348 sky130_fd_pr__nfet_01v8 ad=0.87 pd=6.58 as=0.435 ps=3.29 w=3 l=0.15
X77 VDD.t63 saff_delay_unit_1/saff_2_0.sense_amplifier_0.out2.t5 a_2972_160# VDD.t62 sky130_fd_pr__pfet_01v8 ad=0.435 pd=3.29 as=0.87 ps=6.58 w=3 l=0.15
X78 a_2852_2192.t2 saff_delay_unit_2/delay_unit_2_0.in_2.t9 a_3116_2192.t2 VSS.t20 sky130_fd_pr__nfet_01v8 ad=0.435 pd=3.29 as=0.435 ps=3.29 w=3 l=0.15
X79 a_10464_296# term_4.t4 VSS.t205 VSS.t204 sky130_fd_pr__nfet_01v8 ad=0.145 pd=1.29 as=0.29 ps=2.58 w=1 l=0.15
X80 saff_delay_unit_4/delay_unit_2_0.in_2.t0 saff_delay_unit_3/delay_unit_2_0.in_1.t9 VDD.t113 VDD.t112 sky130_fd_pr__pfet_01v8 ad=0.87 pd=6.58 as=0.435 ps=3.29 w=3 l=0.15
X81 saff_delay_unit_4/saff_2_0.sense_amplifier_0.out2.t3 saff_delay_unit_4/saff_2_0.sense_amplifier_0.out1.t5 a_9962_2192.t5 VSS.t300 sky130_fd_pr__nfet_01v8 ad=0.87 pd=6.58 as=0.435 ps=3.29 w=3 l=0.15
X82 VSS.t220 stop_strong.t7 a_5134_2192.t8 VSS.t219 sky130_fd_pr__nfet_01v8 ad=0.435 pd=3.29 as=0.435 ps=3.29 w=3 l=0.15
X83 a_2852_2192.t3 saff_delay_unit_2/delay_unit_2_0.in_2.t10 a_3116_2192.t3 VSS.t21 sky130_fd_pr__nfet_01v8 ad=0.435 pd=3.29 as=0.435 ps=3.29 w=3 l=0.15
X84 term_2.t2 a_5254_160# VSS.t289 VSS.t288 sky130_fd_pr__nfet_01v8 ad=0.145 pd=1.29 as=0.145 ps=1.29 w=1 l=0.15
X85 VSS.t321 saff_delay_unit_1/delay_unit_2_0.in_2.t12 saff_delay_unit_2/delay_unit_2_0.in_1.t6 VSS.t320 sky130_fd_pr__nfet_01v8 ad=0.145 pd=1.29 as=0.145 ps=1.29 w=1 l=0.15
X86 saff_delay_unit_7/saff_2_0.sense_amplifier_0.out2.t3 saff_delay_unit_7/saff_2_0.sense_amplifier_0.out1.t7 VDD.t194 VDD.t193 sky130_fd_pr__pfet_01v8 ad=0.435 pd=3.29 as=0.87 ps=6.58 w=3 l=0.15
X87 VSS.t287 saff_delay_unit_4/delay_unit_2_0.in_1.t11 saff_delay_unit_4/delay_unit_2_0.in_2.t6 VSS.t286 sky130_fd_pr__nfet_01v8 ad=0.145 pd=1.29 as=0.29 ps=2.58 w=1 l=0.15
X88 saff_delay_unit_2/saff_2_0.nq a_5938_1376# a_5900_730# VDD.t159 sky130_fd_pr__pfet_01v8 ad=0.435 pd=3.29 as=0.435 ps=3.29 w=3 l=0.15
X89 VSS.t362 stop_strong.t8 a_16544_2192.t7 VSS.t361 sky130_fd_pr__nfet_01v8 ad=0.435 pd=3.29 as=0.435 ps=3.29 w=3 l=0.15
X90 a_16632_2192# saff_delay_unit_7/saff_2_0.d.t10 a_16544_2192.t11 VSS.t103 sky130_fd_pr__nfet_01v8 ad=0.435 pd=3.29 as=0.87 ps=6.58 w=3 l=0.15
X91 saff_delay_unit_3/saff_2_0.sense_amplifier_0.out2.t1 saff_delay_unit_3/saff_2_0.sense_amplifier_0.out1.t5 a_7680_2192.t1 VSS.t99 sky130_fd_pr__nfet_01v8 ad=0.87 pd=6.58 as=0.435 ps=3.29 w=3 l=0.15
X92 VDD.t47 saff_delay_unit_2/saff_2_0.nq a_5522_730# VDD.t46 sky130_fd_pr__pfet_01v8 ad=0.87 pd=6.58 as=0.435 ps=3.29 w=3 l=0.15
X93 term_0.t3 saff_delay_unit_0/saff_2_0.sense_amplifier_0.out1.t4 VDD.t260 VDD.t259 sky130_fd_pr__pfet_01v8 ad=0.435 pd=3.29 as=0.435 ps=3.29 w=3 l=0.15
X94 a_14262_2192.t12 stop_strong.t9 VSS.t364 VSS.t363 sky130_fd_pr__nfet_01v8 ad=0.435 pd=3.29 as=0.435 ps=3.29 w=3 l=0.15
X95 a_12784_1376# saff_delay_unit_5/saff_2_0.sense_amplifier_0.out1.t5 VSS.t339 VSS.t338 sky130_fd_pr__nfet_01v8 ad=0.29 pd=2.58 as=0.145 ps=1.29 w=1 l=0.15
X96 delay_unit_2_0.out_2 saff_delay_unit_7/saff_2_0.d.t11 VSS.t283 VSS.t282 sky130_fd_pr__nfet_01v8 ad=0.145 pd=1.29 as=0.145 ps=1.29 w=1 l=0.15
X97 a_834_2192.t3 saff_delay_unit_1/delay_unit_2_0.in_2.t13 a_570_2192.t10 VSS.t375 sky130_fd_pr__nfet_01v8 ad=0.435 pd=3.29 as=0.435 ps=3.29 w=3 l=0.15
X98 VDD.t15 saff_delay_unit_2/delay_unit_2_0.in_2.t11 saff_delay_unit_2/delay_unit_2_0.in_1.t1 VDD.t14 sky130_fd_pr__pfet_01v8 ad=0.435 pd=3.29 as=0.87 ps=6.58 w=3 l=0.15
X99 VDD.t289 saff_delay_unit_7/delay_unit_2_0.in_2.t12 saff_delay_unit_7/saff_2_0.d.t5 VDD.t288 sky130_fd_pr__pfet_01v8 ad=0.435 pd=3.29 as=0.435 ps=3.29 w=3 l=0.15
X100 saff_delay_unit_6/delay_unit_2_0.in_2.t2 saff_delay_unit_5/delay_unit_2_0.in_1.t9 VSS.t268 VSS.t267 sky130_fd_pr__nfet_01v8 ad=0.29 pd=2.58 as=0.145 ps=1.29 w=1 l=0.15
X101 a_14650_730# a_14382_160# term_6.t3 VDD.t183 sky130_fd_pr__pfet_01v8 ad=0.435 pd=3.29 as=0.435 ps=3.29 w=3 l=0.15
X102 a_7680_2192.t5 saff_delay_unit_4/delay_unit_2_0.in_2.t10 a_7416_2192.t12 VSS.t367 sky130_fd_pr__nfet_01v8 ad=0.435 pd=3.29 as=0.435 ps=3.29 w=3 l=0.15
X103 saff_delay_unit_7/delay_unit_2_0.in_1.t6 saff_delay_unit_6/delay_unit_2_0.in_2.t9 VDD.t161 VDD.t160 sky130_fd_pr__pfet_01v8 ad=0.435 pd=3.29 as=0.435 ps=3.29 w=3 l=0.15
X104 VSS.t391 saff_delay_unit_4/delay_unit_2_0.in_1.t12 saff_delay_unit_5/delay_unit_2_0.in_2.t1 VSS.t390 sky130_fd_pr__nfet_01v8 ad=0.145 pd=1.29 as=0.145 ps=1.29 w=1 l=0.15
X105 a_10086_296# saff_delay_unit_4/saff_2_0.sense_amplifier_0.out1.t6 term_4.t3 VSS.t173 sky130_fd_pr__nfet_01v8 ad=0.145 pd=1.29 as=0.145 ps=1.29 w=1 l=0.15
X106 a_5134_2192.t7 stop_strong.t10 VSS.t242 VSS.t241 sky130_fd_pr__nfet_01v8 ad=0.435 pd=3.29 as=0.435 ps=3.29 w=3 l=0.15
X107 saff_delay_unit_0/saff_2_0.nq a_1374_1376# a_1336_730# VDD.t44 sky130_fd_pr__pfet_01v8 ad=0.435 pd=3.29 as=0.435 ps=3.29 w=3 l=0.15
X108 saff_delay_unit_7/delay_unit_2_0.in_2.t6 saff_delay_unit_6/delay_unit_2_0.in_1.t12 VDD.t258 VDD.t257 sky130_fd_pr__pfet_01v8 ad=0.435 pd=3.29 as=0.435 ps=3.29 w=3 l=0.15
X109 saff_delay_unit_6/saff_2_0.nq saff_delay_unit_6/saff_2_0.sense_amplifier_0.out2.t6 a_15028_296# VSS.t299 sky130_fd_pr__nfet_01v8 ad=0.145 pd=1.29 as=0.145 ps=1.29 w=1 l=0.15
X110 a_9698_2192.t3 saff_delay_unit_5/delay_unit_2_0.in_1.t10 a_9786_2192# VSS.t374 sky130_fd_pr__nfet_01v8 ad=0.435 pd=3.29 as=0.435 ps=3.29 w=3 l=0.15
X111 delay_unit_2_0.out_1.t2 saff_delay_unit_7/saff_2_0.nd.t9 VSS.t380 VSS.t379 sky130_fd_pr__nfet_01v8 ad=0.29 pd=2.58 as=0.145 ps=1.29 w=1 l=0.15
X112 VDD.t283 saff_delay_unit_5/delay_unit_2_0.in_1.t11 saff_delay_unit_5/delay_unit_2_0.in_2.t7 VDD.t282 sky130_fd_pr__pfet_01v8 ad=0.435 pd=3.29 as=0.87 ps=6.58 w=3 l=0.15
X113 a_16544_2192.t2 saff_delay_unit_7/saff_2_0.nd.t10 a_16808_2192.t2 VSS.t180 sky130_fd_pr__nfet_01v8 ad=0.435 pd=3.29 as=0.435 ps=3.29 w=3 l=0.15
X114 saff_delay_unit_5/saff_2_0.sense_amplifier_0.out2.t1 saff_delay_unit_5/saff_2_0.sense_amplifier_0.out1.t6 VDD.t148 VDD.t147 sky130_fd_pr__pfet_01v8 ad=0.435 pd=3.29 as=0.87 ps=6.58 w=3 l=0.15
X115 saff_delay_unit_3/delay_unit_2_0.in_1.t5 saff_delay_unit_2/delay_unit_2_0.in_2.t12 VDD.t17 VDD.t16 sky130_fd_pr__pfet_01v8 ad=0.87 pd=6.58 as=0.435 ps=3.29 w=3 l=0.15
X116 VSS.t91 a_3656_1376# saff_delay_unit_1/saff_2_0.nq VSS.t90 sky130_fd_pr__nfet_01v8 ad=0.145 pd=1.29 as=0.145 ps=1.29 w=1 l=0.15
X117 VSS.t291 start_neg.t3 start_pos.t1 VSS.t290 sky130_fd_pr__nfet_01v8 ad=0.145 pd=1.29 as=0.29 ps=2.58 w=1 l=0.15
X118 a_10464_730# term_4.t5 VDD.t212 VDD.t211 sky130_fd_pr__pfet_01v8 ad=0.435 pd=3.29 as=0.87 ps=6.58 w=3 l=0.15
X119 a_834_2192.t0 saff_delay_unit_0/saff_2_0.sense_amplifier_0.out1.t5 saff_delay_unit_0/saff_2_0.sense_amplifier_0.out2.t0 VSS.t42 sky130_fd_pr__nfet_01v8 ad=0.435 pd=3.29 as=0.87 ps=6.58 w=3 l=0.15
X120 a_9698_2192.t8 stop_strong.t11 VSS.t244 VSS.t243 sky130_fd_pr__nfet_01v8 ad=0.435 pd=3.29 as=0.435 ps=3.29 w=3 l=0.15
X121 VSS.t395 saff_delay_unit_3/delay_unit_2_0.in_2.t10 saff_delay_unit_3/delay_unit_2_0.in_1.t6 VSS.t394 sky130_fd_pr__nfet_01v8 ad=0.145 pd=1.29 as=0.29 ps=2.58 w=1 l=0.15
X122 term_2.t1 saff_delay_unit_2/saff_2_0.sense_amplifier_0.out1.t7 VDD.t206 VDD.t205 sky130_fd_pr__pfet_01v8 ad=0.435 pd=3.29 as=0.435 ps=3.29 w=3 l=0.15
X123 a_9786_2192# saff_delay_unit_5/delay_unit_2_0.in_1.t12 a_9698_2192.t2 VSS.t145 sky130_fd_pr__nfet_01v8 ad=0.435 pd=3.29 as=0.87 ps=6.58 w=3 l=0.15
X124 VSS.t223 saff_delay_unit_7/delay_unit_2_0.in_1.t11 saff_delay_unit_7/saff_2_0.nd.t1 VSS.t222 sky130_fd_pr__nfet_01v8 ad=0.145 pd=1.29 as=0.145 ps=1.29 w=1 l=0.15
X125 VSS.t177 saff_delay_unit_4/saff_2_0.sense_amplifier_0.out2.t6 a_9818_160# VSS.t176 sky130_fd_pr__nfet_01v8 ad=0.145 pd=1.29 as=0.29 ps=2.58 w=1 l=0.15
X126 VDD.t79 saff_delay_unit_1/delay_unit_2_0.in_1.t10 saff_delay_unit_2/delay_unit_2_0.in_2.t5 VDD.t78 sky130_fd_pr__pfet_01v8 ad=0.435 pd=3.29 as=0.435 ps=3.29 w=3 l=0.15
X127 VDD.t89 saff_delay_unit_7/saff_2_0.nd.t11 saff_delay_unit_7/saff_2_0.d.t2 VDD.t88 sky130_fd_pr__pfet_01v8 ad=0.435 pd=3.29 as=0.87 ps=6.58 w=3 l=0.15
X128 saff_delay_unit_5/saff_2_0.nq saff_delay_unit_5/saff_2_0.sense_amplifier_0.out2.t4 a_12746_296# VSS.t75 sky130_fd_pr__nfet_01v8 ad=0.145 pd=1.29 as=0.145 ps=1.29 w=1 l=0.15
X129 a_7416_2192.t8 stop_strong.t12 VSS.t342 VSS.t341 sky130_fd_pr__nfet_01v8 ad=0.435 pd=3.29 as=0.435 ps=3.29 w=3 l=0.15
X130 VDD.t279 stop_strong.t13 saff_delay_unit_0/saff_2_0.sense_amplifier_0.out2.t3 VDD.t278 sky130_fd_pr__pfet_01v8 ad=0.87 pd=6.58 as=0.435 ps=3.29 w=3 l=0.15
X131 a_12784_1376# saff_delay_unit_5/saff_2_0.sense_amplifier_0.out1.t7 VDD.t97 VDD.t96 sky130_fd_pr__pfet_01v8 ad=0.87 pd=6.58 as=0.435 ps=3.29 w=3 l=0.15
X132 VDD.t232 saff_delay_unit_7/saff_2_0.sense_amplifier_0.out2.t5 saff_delay_unit_7/saff_2_0.sense_amplifier_0.out1.t2 VDD.t231 sky130_fd_pr__pfet_01v8 ad=0.87 pd=6.58 as=0.435 ps=3.29 w=3 l=0.15
X133 VDD.t132 saff_delay_unit_5/delay_unit_2_0.in_2.t11 saff_delay_unit_6/delay_unit_2_0.in_1.t7 VDD.t131 sky130_fd_pr__pfet_01v8 ad=0.435 pd=3.29 as=0.435 ps=3.29 w=3 l=0.15
X134 a_570_2192.t7 stop_strong.t14 VSS.t13 VSS.t12 sky130_fd_pr__nfet_01v8 ad=0.435 pd=3.29 as=0.435 ps=3.29 w=3 l=0.15
X135 saff_delay_unit_6/saff_2_0.sense_amplifier_0.out1.t3 stop_strong.t15 VDD.t9 VDD.t8 sky130_fd_pr__pfet_01v8 ad=0.435 pd=3.29 as=0.87 ps=6.58 w=3 l=0.15
X136 saff_delay_unit_2/saff_2_0.sense_amplifier_0.out1.t0 saff_delay_unit_2/saff_2_0.sense_amplifier_0.out2.t5 a_5222_2192# VSS.t181 sky130_fd_pr__nfet_01v8 ad=0.87 pd=6.58 as=0.435 ps=3.29 w=3 l=0.15
X137 a_14350_2192# saff_delay_unit_7/delay_unit_2_0.in_1.t12 a_14262_2192.t2 VSS.t376 sky130_fd_pr__nfet_01v8 ad=0.435 pd=3.29 as=0.435 ps=3.29 w=3 l=0.15
X138 saff_delay_unit_3/delay_unit_2_0.in_2.t1 saff_delay_unit_2/delay_unit_2_0.in_1.t11 VSS.t124 VSS.t123 sky130_fd_pr__nfet_01v8 ad=0.29 pd=2.58 as=0.145 ps=1.29 w=1 l=0.15
X139 a_11980_2192.t1 saff_delay_unit_6/delay_unit_2_0.in_2.t10 a_12244_2192.t5 VSS.t92 sky130_fd_pr__nfet_01v8 ad=0.435 pd=3.29 as=0.435 ps=3.29 w=3 l=0.15
X140 VDD.t25 saff_delay_unit_4/delay_unit_2_0.in_2.t11 saff_delay_unit_5/delay_unit_2_0.in_1.t6 VDD.t24 sky130_fd_pr__pfet_01v8 ad=0.435 pd=3.29 as=0.435 ps=3.29 w=3 l=0.15
X141 a_10086_730# a_9818_160# term_4.t1 VDD.t13 sky130_fd_pr__pfet_01v8 ad=0.435 pd=3.29 as=0.435 ps=3.29 w=3 l=0.15
X142 VDD.t87 saff_delay_unit_2/delay_unit_2_0.in_1.t12 saff_delay_unit_2/delay_unit_2_0.in_2.t7 VDD.t86 sky130_fd_pr__pfet_01v8 ad=0.435 pd=3.29 as=0.87 ps=6.58 w=3 l=0.15
X143 a_3240_296# saff_delay_unit_1/saff_2_0.sense_amplifier_0.out1.t5 term_1.t2 VSS.t259 sky130_fd_pr__nfet_01v8 ad=0.145 pd=1.29 as=0.145 ps=1.29 w=1 l=0.15
X144 VSS.t195 saff_delay_unit_5/saff_2_0.nq a_12368_296# VSS.t194 sky130_fd_pr__nfet_01v8 ad=0.29 pd=2.58 as=0.145 ps=1.29 w=1 l=0.15
X145 saff_delay_unit_6/saff_2_0.nq a_15066_1376# a_15028_730# VDD.t10 sky130_fd_pr__pfet_01v8 ad=0.435 pd=3.29 as=0.435 ps=3.29 w=3 l=0.15
X146 VDD.t105 saff_delay_unit_1/saff_2_0.sense_amplifier_0.out2.t6 saff_delay_unit_1/saff_2_0.nq VDD.t104 sky130_fd_pr__pfet_01v8 ad=0.435 pd=3.29 as=0.435 ps=3.29 w=3 l=0.15
X147 a_2852_2192.t11 saff_delay_unit_2/delay_unit_2_0.in_1.t13 a_2940_2192# VSS.t117 sky130_fd_pr__nfet_01v8 ad=0.435 pd=3.29 as=0.435 ps=3.29 w=3 l=0.15
X148 saff_delay_unit_2/saff_2_0.sense_amplifier_0.out2.t0 saff_delay_unit_2/saff_2_0.sense_amplifier_0.out1.t8 VDD.t31 VDD.t30 sky130_fd_pr__pfet_01v8 ad=0.435 pd=3.29 as=0.87 ps=6.58 w=3 l=0.15
X149 VDD.t29 saff_delay_unit_6/delay_unit_2_0.in_2.t11 saff_delay_unit_6/delay_unit_2_0.in_1.t1 VDD.t28 sky130_fd_pr__pfet_01v8 ad=0.435 pd=3.29 as=0.87 ps=6.58 w=3 l=0.15
X150 saff_delay_unit_3/saff_2_0.nq saff_delay_unit_3/saff_2_0.sense_amplifier_0.out2.t5 a_8182_296# VSS.t236 sky130_fd_pr__nfet_01v8 ad=0.145 pd=1.29 as=0.145 ps=1.29 w=1 l=0.15
X151 a_16808_2192.t1 saff_delay_unit_7/saff_2_0.nd.t12 a_16544_2192.t1 VSS.t168 sky130_fd_pr__nfet_01v8 ad=0.435 pd=3.29 as=0.435 ps=3.29 w=3 l=0.15
X152 VSS.t261 a_17348_1376# saff_delay_unit_7/saff_2_0.nq VSS.t260 sky130_fd_pr__nfet_01v8 ad=0.145 pd=1.29 as=0.145 ps=1.29 w=1 l=0.15
X153 a_2852_2192.t6 stop_strong.t16 VSS.t254 VSS.t253 sky130_fd_pr__nfet_01v8 ad=0.435 pd=3.29 as=0.435 ps=3.29 w=3 l=0.15
X154 saff_delay_unit_4/delay_unit_2_0.in_2.t2 saff_delay_unit_3/delay_unit_2_0.in_1.t10 VSS.t238 VSS.t237 sky130_fd_pr__nfet_01v8 ad=0.145 pd=1.29 as=0.145 ps=1.29 w=1 l=0.15
X155 VDD.t91 saff_delay_unit_4/saff_2_0.sense_amplifier_0.out2.t7 a_9818_160# VDD.t90 sky130_fd_pr__pfet_01v8 ad=0.435 pd=3.29 as=0.87 ps=6.58 w=3 l=0.15
X156 a_14262_2192.t11 stop_strong.t17 VSS.t256 VSS.t255 sky130_fd_pr__nfet_01v8 ad=0.435 pd=3.29 as=0.435 ps=3.29 w=3 l=0.15
X157 a_14262_2192.t1 saff_delay_unit_7/delay_unit_2_0.in_1.t13 a_14350_2192# VSS.t118 sky130_fd_pr__nfet_01v8 ad=0.435 pd=3.29 as=0.435 ps=3.29 w=3 l=0.15
X158 saff_delay_unit_5/saff_2_0.nq a_12784_1376# a_12746_730# VDD.t221 sky130_fd_pr__pfet_01v8 ad=0.435 pd=3.29 as=0.435 ps=3.29 w=3 l=0.15
X159 saff_delay_unit_0/saff_2_0.sense_amplifier_0.out1.t3 stop_strong.t18 VDD.t154 VDD.t153 sky130_fd_pr__pfet_01v8 ad=0.435 pd=3.29 as=0.87 ps=6.58 w=3 l=0.15
X160 VDD.t1 saff_delay_unit_2/delay_unit_2_0.in_2.t13 saff_delay_unit_3/delay_unit_2_0.in_1.t0 VDD.t0 sky130_fd_pr__pfet_01v8 ad=0.435 pd=3.29 as=0.435 ps=3.29 w=3 l=0.15
X161 saff_delay_unit_2/delay_unit_2_0.in_1.t7 saff_delay_unit_1/delay_unit_2_0.in_2.t14 VDD.t252 VDD.t251 sky130_fd_pr__pfet_01v8 ad=0.435 pd=3.29 as=0.435 ps=3.29 w=3 l=0.15
X162 saff_delay_unit_3/saff_2_0.sense_amplifier_0.out1.t1 stop_strong.t19 VDD.t156 VDD.t155 sky130_fd_pr__pfet_01v8 ad=0.435 pd=3.29 as=0.87 ps=6.58 w=3 l=0.15
X163 delay_unit_2_0.out_2 saff_delay_unit_7/saff_2_0.d.t12 VSS.t266 VSS.t265 sky130_fd_pr__nfet_01v8 ad=0.29 pd=2.58 as=0.145 ps=1.29 w=1 l=0.15
X164 a_5134_2192.t3 saff_delay_unit_3/delay_unit_2_0.in_2.t11 a_5398_2192.t3 VSS.t396 sky130_fd_pr__nfet_01v8 ad=0.435 pd=3.29 as=0.435 ps=3.29 w=3 l=0.15
X165 saff_delay_unit_5/saff_2_0.sense_amplifier_0.out2.t0 saff_delay_unit_5/saff_2_0.sense_amplifier_0.out1.t8 a_12244_2192.t1 VSS.t271 sky130_fd_pr__nfet_01v8 ad=0.87 pd=6.58 as=0.435 ps=3.29 w=3 l=0.15
X166 VDD.t130 saff_delay_unit_7/saff_2_0.d.t13 saff_delay_unit_7/saff_2_0.nd.t7 VDD.t129 sky130_fd_pr__pfet_01v8 ad=0.435 pd=3.29 as=0.87 ps=6.58 w=3 l=0.15
X167 saff_delay_unit_7/delay_unit_2_0.in_1.t2 saff_delay_unit_6/delay_unit_2_0.in_2.t12 VDD.t57 VDD.t56 sky130_fd_pr__pfet_01v8 ad=0.87 pd=6.58 as=0.435 ps=3.29 w=3 l=0.15
X168 a_1374_1376# saff_delay_unit_0/saff_2_0.sense_amplifier_0.out1.t6 VSS.t31 VSS.t30 sky130_fd_pr__nfet_01v8 ad=0.29 pd=2.58 as=0.145 ps=1.29 w=1 l=0.15
X169 a_5134_2192.t1 saff_delay_unit_3/delay_unit_2_0.in_2.t12 a_5398_2192.t2 VSS.t348 sky130_fd_pr__nfet_01v8 ad=0.435 pd=3.29 as=0.435 ps=3.29 w=3 l=0.15
X170 delay_unit_2_0.out_1.t1 saff_delay_unit_7/saff_2_0.nd.t13 VSS.t273 VSS.t272 sky130_fd_pr__nfet_01v8 ad=0.145 pd=1.29 as=0.145 ps=1.29 w=1 l=0.15
X171 a_16544_2192.t10 saff_delay_unit_7/saff_2_0.d.t14 a_16632_2192# VSS.t228 sky130_fd_pr__nfet_01v8 ad=0.435 pd=3.29 as=0.435 ps=3.29 w=3 l=0.15
X172 VDD.t297 saff_delay_unit_5/delay_unit_2_0.in_1.t13 saff_delay_unit_6/delay_unit_2_0.in_2.t6 VDD.t296 sky130_fd_pr__pfet_01v8 ad=0.435 pd=3.29 as=0.435 ps=3.29 w=3 l=0.15
X173 VSS.t81 saff_delay_unit_7/delay_unit_2_0.in_2.t13 saff_delay_unit_7/delay_unit_2_0.in_1.t1 VSS.t80 sky130_fd_pr__nfet_01v8 ad=0.145 pd=1.29 as=0.29 ps=2.58 w=1 l=0.15
X174 a_3240_730# a_2972_160# term_1.t1 VDD.t48 sky130_fd_pr__pfet_01v8 ad=0.435 pd=3.29 as=0.435 ps=3.29 w=3 l=0.15
X175 saff_delay_unit_5/delay_unit_2_0.in_2.t5 saff_delay_unit_4/delay_unit_2_0.in_1.t13 VDD.t204 VDD.t203 sky130_fd_pr__pfet_01v8 ad=0.435 pd=3.29 as=0.435 ps=3.29 w=3 l=0.15
X176 VDD.t163 saff_delay_unit_5/saff_2_0.nq a_12368_730# VDD.t162 sky130_fd_pr__pfet_01v8 ad=0.87 pd=6.58 as=0.435 ps=3.29 w=3 l=0.15
X177 a_9698_2192.t11 saff_delay_unit_5/delay_unit_2_0.in_2.t12 a_9962_2192.t2 VSS.t300 sky130_fd_pr__nfet_01v8 ad=0.435 pd=3.29 as=0.435 ps=3.29 w=3 l=0.15
X178 a_7680_2192.t0 saff_delay_unit_3/saff_2_0.sense_amplifier_0.out1.t6 saff_delay_unit_3/saff_2_0.sense_amplifier_0.out2.t0 VSS.t175 sky130_fd_pr__nfet_01v8 ad=0.435 pd=3.29 as=0.87 ps=6.58 w=3 l=0.15
X179 VSS.t293 start_neg.t4 saff_delay_unit_1/delay_unit_2_0.in_1.t2 VSS.t292 sky130_fd_pr__nfet_01v8 ad=0.145 pd=1.29 as=0.145 ps=1.29 w=1 l=0.15
X180 VSS.t153 a_10502_1376# saff_delay_unit_4/saff_2_0.nq VSS.t152 sky130_fd_pr__nfet_01v8 ad=0.145 pd=1.29 as=0.145 ps=1.29 w=1 l=0.15
X181 a_9698_2192.t7 stop_strong.t20 VSS.t216 VSS.t215 sky130_fd_pr__nfet_01v8 ad=0.435 pd=3.29 as=0.435 ps=3.29 w=3 l=0.15
X182 a_7416_2192.t9 saff_delay_unit_4/delay_unit_2_0.in_2.t12 a_7680_2192.t4 VSS.t99 sky130_fd_pr__nfet_01v8 ad=0.435 pd=3.29 as=0.435 ps=3.29 w=3 l=0.15
X183 saff_delay_unit_3/saff_2_0.nq a_8220_1376# a_8182_730# VDD.t168 sky130_fd_pr__pfet_01v8 ad=0.435 pd=3.29 as=0.435 ps=3.29 w=3 l=0.15
X184 a_12068_2192# saff_delay_unit_5/saff_2_0.sense_amplifier_0.out2.t5 saff_delay_unit_5/saff_2_0.sense_amplifier_0.out1.t1 VSS.t65 sky130_fd_pr__nfet_01v8 ad=0.435 pd=3.29 as=0.87 ps=6.58 w=3 l=0.15
X185 VDD.t256 saff_delay_unit_7/saff_2_0.nd.t14 delay_unit_2_0.out_1.t4 VDD.t255 sky130_fd_pr__pfet_01v8 ad=0.435 pd=3.29 as=0.435 ps=3.29 w=3 l=0.15
X186 saff_delay_unit_7/delay_unit_2_0.in_2.t0 saff_delay_unit_6/delay_unit_2_0.in_1.t13 VSS.t9 VSS.t8 sky130_fd_pr__nfet_01v8 ad=0.29 pd=2.58 as=0.145 ps=1.29 w=1 l=0.15
X187 VDD.t234 saff_delay_unit_7/saff_2_0.sense_amplifier_0.out2.t6 saff_delay_unit_7/saff_2_0.nq VDD.t233 sky130_fd_pr__pfet_01v8 ad=0.435 pd=3.29 as=0.435 ps=3.29 w=3 l=0.15
X188 a_9962_2192.t1 saff_delay_unit_5/delay_unit_2_0.in_2.t13 a_9698_2192.t10 VSS.t269 sky130_fd_pr__nfet_01v8 ad=0.435 pd=3.29 as=0.435 ps=3.29 w=3 l=0.15
X189 saff_delay_unit_1/delay_unit_2_0.in_2.t7 start_pos.t4 VDD.t242 VDD.t241 sky130_fd_pr__pfet_01v8 ad=0.87 pd=6.58 as=0.435 ps=3.29 w=3 l=0.15